<sumoConfiguration xmlns:xsi="http://www.w3.org/2001/XMLSchema-instance" xsi:noNamespaceSchemaLocation="http://sumo.dlr.de/xsd/sumoConfiguration.xsd">

    <input>
        <net-file value="Hornbach.net.xml"/>
        <route-files value="Aupark-hard.rou.xml"/>
    </input>

</sumoConfiguration>
