<?xml version="1.0" encoding="UTF-8"?>

<!-- generated on 2026-04-12T19:45:59.300672+01:00 by Eclipse SUMO sumo 1.26.0
-->

<sumoConfiguration xmlns:xsi="http://www.w3.org/2001/XMLSchema-instance" xsi:noNamespaceSchemaLocation="http://sumo.dlr.de/xsd/sumoConfiguration.xsd">

    <input>
        <net-file value="Aupark.net.xml"/>
        <route-files value="Scenarios/Aupark-scenario.rou.xml"/>
    </input>

</sumoConfiguration>
