<?xml version="1.0" encoding="UTF-8"?>

<!-- generated on 2026-04-25T00:05:52.317125+01:00 by Eclipse SUMO netedit 1.26.0
<neteditConfiguration xmlns:xsi="http://www.w3.org/2001/XMLSchema-instance" xsi:noNamespaceSchemaLocation="http://sumo.dlr.de/xsd/neteditConfiguration.xsd">

    <input>
        <sumocfg-file value="/home/tashmaf/PycharmProjects/TrafficLightControlReinforcementLearning/simulation/AuparkB.sumocfg"/>
        <sumo-net-file value="/home/tashmaf/PycharmProjects/TrafficLightControlReinforcementLearning/simulation/Aupark.net.xml"/>
    </input>

    <output>
        <output-file value="/home/tashmaf/PycharmProjects/TrafficLightControlReinforcementLearning/simulation/Aupark.net.xml"/>
    </output>

    <processing>
        <geometry.min-radius.fix.railways value="false"/>
        <geometry.avoid-overlap value="false"/>
        <geometry.max-grade.fix value="false"/>
        <offset.disable-normalization value="true"/>
        <lefthand value="0"/>
    </processing>

    <junctions>
        <no-internal-links value="false"/>
        <no-turnarounds value="true"/>
        <junctions.corner-detail value="5"/>
        <junctions.limit-turn-speed value="5.50"/>
        <rectangular-lane-cut value="0"/>
    </junctions>

    <pedestrian>
        <walkingareas value="0"/>
    </pedestrian>

</neteditConfiguration>
-->

<net version="1.20" junctionCornerDetail="5" limitTurnSpeed="5.50" avoidOverlap="0" xmlns:xsi="http://www.w3.org/2001/XMLSchema-instance" xsi:noNamespaceSchemaLocation="http://sumo.dlr.de/xsd/net_file.xsd">

    <location netOffset="0.00,0.00" convBoundary="-124.34,-139.68,129.50,127.29" origBoundary="-10000000000.00,-10000000000.00,10000000000.00,10000000000.00" projParameter="!"/>

    <edge id=":E2_in_0" function="internal">
        <lane id=":E2_in_0_0" index="0" disallow="pedestrian" speed="13.89" length="23.10" shape="79.27,2.34 72.51,4.21 68.43,7.51 64.34,10.82 57.58,12.72"/>
        <lane id=":E2_in_0_1" index="1" disallow="pedestrian" speed="13.89" length="23.10" shape="79.27,2.34 72.61,3.70 68.30,5.92 64.00,8.14 57.33,9.53"/>
        <lane id=":E2_in_0_2" index="2" disallow="pedestrian" speed="13.89" length="23.10" shape="79.27,2.34 72.64,3.20 68.18,4.32 63.71,5.46 57.08,6.34"/>
        <lane id=":E2_in_0_3" index="3" disallow="pedestrian" speed="13.89" length="23.10" shape="79.03,-0.85 72.40,0.01 67.93,1.13 63.46,2.27 56.83,3.15"/>
        <lane id=":E2_in_0_4" index="4" disallow="pedestrian" speed="13.89" length="23.10" shape="79.03,-0.85 56.58,-0.04"/>
    </edge>
    <edge id=":E2_in_w0" function="walkingarea">
        <lane id=":E2_in_w0_0" index="0" allow="pedestrian" speed="2.78" length="24.04" width="2.00" shape="57.71,14.31 57.87,16.30 79.55,5.93 79.39,3.93 74.46,4.95 71.11,6.82 68.55,9.11 65.99,11.40 62.64,13.28"/>
    </edge>
    <edge id=":E2_out_0" function="internal">
        <lane id=":E2_out_0_0" index="0" disallow="pedestrian" speed="13.89" length="8.01" shape="71.47,-8.55 79.43,-8.79"/>
        <lane id=":E2_out_0_1" index="1" disallow="pedestrian" speed="13.89" length="8.01" shape="71.52,-5.35 79.57,-5.59"/>
    </edge>
    <edge id=":E2_out_w0" function="walkingarea">
        <lane id=":E2_out_w0_0" index="0" allow="pedestrian" speed="2.78" length="8.46" width="2.00" shape="79.36,-10.38 79.27,-12.38 71.37,-15.35 71.40,-13.35 73.17,-13.14 74.41,-12.57 75.38,-11.82 76.35,-11.08 77.59,-10.54"/>
    </edge>
    <edge id=":E4_in_0" function="internal">
        <lane id=":E4_in_0_0" index="0" disallow="pedestrian" speed="13.89" length="13.10" shape="45.30,13.69 41.46,14.13 38.88,14.76 36.36,15.66 32.67,16.91"/>
    </edge>
    <edge id=":E4_in_1" function="internal">
        <lane id=":E4_in_1_0" index="0" disallow="pedestrian" speed="13.89" length="12.87" shape="45.05,10.50 32.00,11.39"/>
        <lane id=":E4_in_1_1" index="1" disallow="pedestrian" speed="13.89" length="12.87" shape="44.80,7.31 31.89,8.19"/>
        <lane id=":E4_in_1_2" index="2" disallow="pedestrian" speed="13.89" length="12.87" shape="44.55,4.12 31.78,4.99"/>
        <lane id=":E4_in_1_3" index="3" disallow="pedestrian" speed="13.89" length="12.87" shape="44.30,0.93 31.67,1.80"/>
    </edge>
    <edge id=":E4_in_w0" function="walkingarea">
        <lane id=":E4_in_w0_0" index="0" allow="pedestrian" speed="2.78" length="12.46" width="2.00" shape="33.00,18.50 33.89,20.29 45.59,17.27 45.43,15.28 42.75,15.56 40.78,15.90 39.19,16.34 37.62,16.89 35.72,17.58"/>
    </edge>
    <edge id=":E4_out_0" function="internal">
        <lane id=":E4_out_0_0" index="0" disallow="pedestrian" speed="10.98" length="6.79" shape="31.10,-13.55 32.78,-12.43 34.01,-11.72 35.34,-11.35 37.31,-11.26"/>
    </edge>
    <edge id=":E4_out_1" function="internal">
        <lane id=":E4_out_1_0" index="0" disallow="pedestrian" speed="13.89" length="7.51" shape="29.84,-7.91 37.36,-8.06"/>
        <lane id=":E4_out_1_1" index="1" disallow="pedestrian" speed="13.89" length="7.51" shape="29.90,-4.71 37.40,-4.86"/>
    </edge>
    <edge id=":E4_out_w0" function="walkingarea">
        <lane id=":E4_out_w0_0" index="0" allow="pedestrian" speed="2.78" length="4.69" width="2.00" shape="37.29,-12.86 37.26,-14.86 33.41,-16.34 32.34,-14.66 32.99,-14.21 33.78,-13.68 34.46,-13.29 35.18,-13.03 36.07,-12.89"/>
    </edge>
    <edge id=":I_0" function="internal">
        <lane id=":I_0_0" index="0" disallow="pedestrian" speed="13.89" length="41.21" shape="25.36,11.62 -15.84,13.56"/>
        <lane id=":I_0_1" index="1" disallow="pedestrian" speed="13.89" length="41.21" shape="25.30,8.42 -15.84,10.36"/>
    </edge>
    <edge id=":I_2" function="internal">
        <lane id=":I_2_0" index="0" disallow="pedestrian" speed="13.07" length="37.32" shape="25.24,5.22 12.20,4.30 2.96,0.49 -2.48,-6.20 -3.42,-11.75"/>
        <lane id=":I_2_1" index="1" disallow="pedestrian" speed="12.23" length="32.00" shape="25.18,2.02 13.60,1.26 5.39,-1.95 0.55,-7.60 -0.18,-11.67"/>
    </edge>
    <edge id=":I_16" function="internal">
        <lane id=":I_16_0" index="0" disallow="pedestrian" speed="13.07" length="4.08" shape="-3.42,-11.75 -4.11,-15.77"/>
        <lane id=":I_16_1" index="0" disallow="pedestrian" speed="12.23" length="4.08" shape="-0.18,-11.67 -0.91,-15.69"/>
    </edge>
    <edge id=":I_4" function="internal">
        <lane id=":I_4_0" index="0" disallow="pedestrian" speed="13.89" length="36.74" shape="16.42,-15.27 16.06,21.43"/>
        <lane id=":I_4_1" index="1" disallow="pedestrian" speed="13.89" length="36.74" shape="13.22,-15.35 12.87,21.39"/>
        <lane id=":I_4_2" index="2" disallow="pedestrian" speed="13.89" length="36.74" shape="10.02,-15.43 9.67,21.35"/>
    </edge>
    <edge id=":I_7" function="internal">
        <lane id=":I_7_0" index="0" disallow="pedestrian" speed="12.61" length="31.76" shape="6.82,-15.50 4.38,-7.71 -1.41,0.77 -8.74,7.58 -11.84,8.79"/>
    </edge>
    <edge id=":I_17" function="internal">
        <lane id=":I_17_0" index="0" disallow="pedestrian" speed="12.61" length="4.30" shape="-11.84,8.79 -15.84,10.36"/>
    </edge>
    <edge id=":I_8" function="internal">
        <lane id=":I_8_0" index="0" disallow="pedestrian" speed="13.89" length="40.88" shape="-15.81,-6.08 25.00,-7.82"/>
        <lane id=":I_8_1" index="1" disallow="pedestrian" speed="13.89" length="40.88" shape="-15.81,-2.88 25.06,-4.62"/>
    </edge>
    <edge id=":I_10" function="internal">
        <lane id=":I_10_0" index="0" disallow="pedestrian" speed="13.58" length="39.02" shape="-15.82,0.32 -1.78,1.68 8.21,5.66 14.16,12.24 15.23,17.42"/>
        <lane id=":I_10_1" index="1" disallow="pedestrian" speed="12.77" length="33.87" shape="-15.83,3.52 -3.20,4.67 5.79,8.04 11.15,13.61 11.98,17.38"/>
    </edge>
    <edge id=":I_18" function="internal">
        <lane id=":I_18_0" index="0" disallow="pedestrian" speed="13.58" length="4.09" shape="15.23,17.42 16.06,21.43"/>
        <lane id=":I_18_1" index="0" disallow="pedestrian" speed="12.77" length="4.11" shape="11.98,17.38 12.87,21.39"/>
    </edge>
    <edge id=":I_12" function="internal">
        <lane id=":I_12_0" index="0" disallow="pedestrian" speed="13.89" length="39.51" shape="-9.67,23.37 -4.11,-15.77"/>
        <lane id=":I_12_1" index="1" disallow="pedestrian" speed="13.89" length="39.51" shape="-6.46,23.40 -0.91,-15.69"/>
    </edge>
    <edge id=":I_14" function="internal">
        <lane id=":I_14_0" index="0" disallow="pedestrian" speed="13.89" length="39.10" shape="-3.26,23.44 0.20,14.83 7.93,4.54 17.13,-4.12 21.03,-5.95"/>
        <lane id=":I_14_1" index="1" disallow="pedestrian" speed="13.39" length="34.80" shape="-0.06,23.48 2.92,15.37 9.59,6.16 17.71,-1.41 21.09,-2.89"/>
    </edge>
    <edge id=":I_19" function="internal">
        <lane id=":I_19_0" index="0" disallow="pedestrian" speed="13.89" length="4.38" shape="21.03,-5.95 25.00,-7.82"/>
        <lane id=":I_19_1" index="0" disallow="pedestrian" speed="13.39" length="4.33" shape="21.09,-2.89 25.06,-4.62"/>
    </edge>
    <edge id=":I_c0" function="crossing" crossingEdges="E5_in">
        <lane id=":I_c0_0" index="0" allow="pedestrian" speed="2.78" length="12.80" width="4.00" shape="23.13,0.49 23.41,13.29" outlineShape="25.13,0.44 25.41,13.24 25.37,13.34 25.37,13.22 23.68,13.55 22.23,14.35 21.45,15.18 21.41,13.33 21.13,0.53 25.13,0.44 21.13,0.53 21.10,-1.47"/>
    </edge>
    <edge id=":I_c1" function="crossing" crossingEdges="E5_out">
        <lane id=":I_c1_0" index="0" allow="pedestrian" speed="2.78" length="6.40" width="4.00" shape="22.97,-9.38 23.09,-2.98" outlineShape="24.97,-9.52 25.09,-3.02 21.09,-2.95 25.09,-3.02 21.09,-2.95 20.97,-9.35 22.43,-11.61 22.54,-11.05 23.06,-10.21 23.89,-9.63"/>
    </edge>
    <edge id=":I_c2" function="crossing" crossingEdges="S5_in">
        <lane id=":I_c2_0" index="0" allow="pedestrian" speed="2.78" length="12.80" width="4.00" shape="5.17,-13.55 17.96,-13.23" outlineShape="5.12,-15.55 18.11,-15.22 18.24,-14.07 18.89,-13.28 19.84,-12.88 19.96,-12.87 17.91,-11.23 5.12,-11.55 5.22,-15.55 5.12,-11.55"/>
    </edge>
    <edge id=":I_c3" function="crossing" crossingEdges="S5_out">
        <lane id=":I_c3_0" index="0" allow="pedestrian" speed="2.78" length="6.40" width="4.00" shape="-5.76,-13.81 0.64,-13.65" outlineShape="-5.81,-15.81 0.79,-15.65 5.22,-15.55 5.12,-11.55 0.59,-11.65 -7.62,-11.86 -6.96,-12.39 -6.07,-13.91"/>
    </edge>
    <edge id=":I_c4" function="crossing" crossingEdges="W3_in">
        <lane id=":I_c4_0" index="0" allow="pedestrian" speed="2.78" length="12.80" width="4.00" shape="-13.83,5.12 -13.80,-7.68" outlineShape="-15.83,5.12 -15.80,-7.68 -14.57,-7.88 -13.51,-8.43 -12.72,-9.21 -12.39,-9.94 -11.80,-7.67 -11.83,5.13 -15.83,5.22 -11.83,5.13"/>
    </edge>
    <edge id=":I_c5" function="crossing" crossingEdges="W5_out">
        <lane id=":I_c5_0" index="0" allow="pedestrian" speed="2.78" length="6.40" width="4.00" shape="-13.85,15.16 -13.84,8.76" outlineShape="-15.85,15.26 -15.84,8.66 -11.84,8.77 -15.84,8.76 -11.84,8.77 -11.85,15.17 -13.81,17.36 -13.99,16.25 -14.65,15.46"/>
    </edge>
    <edge id=":I_c6" function="crossing" crossingEdges="N3_in">
        <lane id=":I_c6_0" index="0" allow="pedestrian" speed="2.78" length="12.81" width="4.00" shape="1.66,21.58 -11.14,21.28" outlineShape="1.71,23.58 -11.29,23.27 -11.41,22.15 -11.93,21.25 -12.72,20.63 -13.44,20.42 -11.10,19.28 1.71,19.58 1.61,23.58 1.71,19.58"/>
    </edge>
    <edge id=":I_c7" function="crossing" crossingEdges="N3_out">
        <lane id=":I_c7_0" index="0" allow="pedestrian" speed="2.78" length="9.60" width="4.00" shape="17.69,19.45 8.09,19.34" outlineShape="17.66,21.45 8.07,21.34 1.61,23.58 1.71,19.58 6.34,17.96 8.11,17.34 17.71,17.45 19.93,18.84 19.08,19.07 18.36,19.61 17.86,20.42"/>
    </edge>
    <edge id=":I_w0" function="walkingarea">
        <lane id=":I_w0_0" index="0" allow="pedestrian" speed="2.78" length="2.77" width="4.00" shape="17.66,21.45 19.66,21.47 20.33,20.97 21.69,19.51 20.83,18.97 19.93,18.84 19.08,19.07 18.36,19.61 17.86,20.42"/>
    </edge>
    <edge id=":I_w1" function="walkingarea">
        <lane id=":I_w1_0" index="0" allow="pedestrian" speed="2.78" length="4.42" width="4.00" shape="21.69,19.51 23.06,18.05 25.44,15.22 25.37,13.22 23.68,13.55 22.23,14.35 21.18,15.47 20.66,16.80 20.79,18.19"/>
    </edge>
    <edge id=":I_w2" function="walkingarea">
        <lane id=":I_w2_0" index="0" allow="pedestrian" speed="2.78" length="3.00" width="4.00" shape="24.97,-9.42 24.93,-11.42 24.56,-12.38 23.25,-13.88 22.58,-13.00 22.36,-12.02 22.54,-11.05 23.06,-10.21 23.89,-9.63"/>
    </edge>
    <edge id=":I_w3" function="walkingarea">
        <lane id=":I_w3_0" index="0" allow="pedestrian" speed="2.78" length="3.57" width="4.00" shape="23.25,-13.88 21.93,-15.39 20.02,-15.18 18.02,-15.23 18.24,-14.07 18.89,-13.28 19.84,-12.88 20.97,-12.84 22.15,-13.18"/>
    </edge>
    <edge id=":I_w4" function="walkingarea">
        <lane id=":I_w4_0" index="0" allow="pedestrian" speed="2.78" length="5.11" width="4.00" shape="-5.71,-15.81 -7.71,-15.86 -11.70,-13.52 -13.02,-12.02 -11.41,-11.07 -9.77,-10.88 -8.24,-11.35 -6.96,-12.39 -6.07,-13.91"/>
    </edge>
    <edge id=":I_w5" function="walkingarea">
        <lane id=":I_w5_0" index="0" allow="pedestrian" speed="2.78" length="3.06" width="4.00" shape="-13.02,-12.02 -14.34,-10.51 -15.80,-9.68 -15.81,-7.68 -14.57,-7.88 -13.51,-8.43 -12.72,-9.21 -12.31,-10.14 -12.37,-11.10"/>
    </edge>
    <edge id=":I_w6" function="walkingarea">
        <lane id=":I_w6_0" index="0" allow="pedestrian" speed="2.78" length="4.05" width="4.00" shape="-15.85,15.16 -15.85,17.16 -16.98,19.59 -15.62,21.06 -14.68,19.93 -14.06,18.64 -13.81,17.36 -13.99,16.25 -14.65,15.46"/>
    </edge>
    <edge id=":I_w7" function="walkingarea">
        <lane id=":I_w7_0" index="0" allow="pedestrian" speed="2.78" length="3.09" width="4.00" shape="-15.62,21.06 -14.26,22.53 -13.27,23.28 -11.27,23.40 -11.19,23.28 -11.41,22.15 -11.93,21.25 -12.72,20.63 -13.66,20.36 -14.67,20.48"/>
    </edge>
    <edge id=":I_w8" function="walkingarea">
        <lane id=":I_w8_0" index="0" allow="pedestrian" speed="2.78" length="3.47" width="4.00" shape="21.09,-2.95 25.09,-3.02 25.13,0.44 21.13,0.53"/>
    </edge>
    <edge id=":I_w9" function="walkingarea">
        <lane id=":I_w9_0" index="0" allow="pedestrian" speed="2.78" length="4.53" width="4.00" shape="0.59,-11.65 0.69,-15.65 5.22,-15.55 5.12,-11.55"/>
    </edge>
    <edge id=":I_w10" function="walkingarea">
        <lane id=":I_w10_0" index="0" allow="pedestrian" speed="2.78" length="3.64" width="4.00" shape="-11.84,8.77 -15.84,8.76 -15.83,5.12 -11.83,5.13"/>
    </edge>
    <edge id=":I_w11" function="walkingarea">
        <lane id=":I_w11_0" index="0" allow="pedestrian" speed="2.78" length="6.81" width="4.00" shape="8.11,17.34 8.07,21.34 1.61,23.58 1.71,19.58"/>
    </edge>
    <edge id=":I-NE_0" function="internal">
        <lane id=":I-NE_0_0" index="0" disallow="pedestrian" speed="13.89" length="6.88" shape="28.54,18.94 26.66,19.75 25.30,20.25 24.10,20.95 22.68,22.36"/>
    </edge>
    <edge id=":I-NE_c0" function="crossing" crossingEdges="NE_in">
        <lane id=":I-NE_c0_0" index="0" allow="pedestrian" speed="2.78" length="3.20" width="4.00" shape="26.04,18.40 27.47,21.26" outlineShape="27.78,17.42 29.26,20.37 28.31,21.02 27.69,21.80 27.42,22.67 27.49,23.59 25.68,22.16 24.25,19.29 23.66,18.12 23.21,18.19 21.84,19.65 22.89,20.34 23.79,20.37 24.64,19.92 25.53,19.18 26.56,18.31"/>
    </edge>
    <edge id=":I-NE_c1" function="crossing" crossingEdges="NE_out">
        <lane id=":I-NE_c1_0" index="0" allow="pedestrian" speed="2.78" length="3.20" width="4.00" shape="25.20,21.89 22.78,19.80" outlineShape="23.89,23.40 21.47,21.31 21.84,19.65 20.47,21.11 21.47,21.31 24.08,18.28 26.51,20.37 26.58,23.36 26.18,23.02 25.45,22.67 24.70,22.75"/>
    </edge>
    <edge id=":I-NE_w0" function="walkingarea">
        <lane id=":I-NE_w0_0" index="0" allow="pedestrian" speed="2.78" length="3.61" width="4.00" shape="23.89,23.40 24.23,23.02 25.74,24.32 27.43,26.88 28.70,25.33 27.77,24.48 26.94,23.66 26.18,23.02 25.45,22.67 24.70,22.75"/>
    </edge>
    <edge id=":I-NE_w1" function="walkingarea">
        <lane id=":I-NE_w1_0" index="0" allow="pedestrian" speed="2.78" length="3.11" width="4.00" shape="28.70,25.33 29.97,23.78 30.15,22.16 29.26,20.37 28.31,21.02 27.69,21.80 27.42,22.67 27.49,23.59 27.92,24.49"/>
    </edge>
    <edge id=":I-NE_w2" function="walkingarea">
        <lane id=":I-NE_w2_0" index="0" allow="pedestrian" speed="2.78" length="3.55" width="4.00" shape="27.83,17.51 23.21,18.19 21.84,19.65 22.89,20.34 23.79,20.37 24.64,19.92 25.53,19.18 26.56,18.31"/>
    </edge>
    <edge id=":I-NE_w3" function="walkingarea">
        <lane id=":I-NE_w3_0" index="0" allow="pedestrian" speed="2.78" length="1.72" width="4.00" shape="21.84,19.65 20.47,21.11 21.47,21.31 21.73,21.01 21.95,20.72 22.10,20.46 22.15,20.20 22.07,19.93"/>
    </edge>
    <edge id=":I-NW_0" function="internal">
        <lane id=":I-NW_0_0" index="0" disallow="pedestrian" speed="13.89" length="8.73" shape="-16.33,27.50 -17.49,25.20 -18.47,23.70 -19.73,22.44 -21.76,20.85"/>
    </edge>
    <edge id=":I-NW_c0" function="crossing" crossingEdges="NW_in">
        <lane id=":I-NW_c0_0" index="0" allow="pedestrian" speed="2.78" length="3.20" width="4.00" shape="-15.77,25.00 -18.64,26.41" outlineShape="-14.89,26.79 -17.76,28.21 -18.38,27.24 -19.10,26.59 -19.91,26.25 -20.79,26.24 -21.04,26.33 -19.53,24.62 -16.66,23.20 -16.97,23.36 -16.74,23.99 -16.20,24.79 -15.54,25.70"/>
    </edge>
    <edge id=":I-NW_c1" function="crossing" crossingEdges="NW_out">
        <lane id=":I-NW_c1_0" index="0" allow="pedestrian" speed="2.78" length="3.20" width="4.00" shape="-21.13,23.33 -19.20,20.78" outlineShape="-22.73,22.13 -20.80,19.57 -16.84,20.96 -17.58,20.15 -20.80,19.57 -17.61,21.98 -19.53,24.54 -21.49,25.71 -21.37,25.49 -21.21,24.62 -21.38,23.76 -21.88,22.92"/>
    </edge>
    <edge id=":I-NW_w0" function="walkingarea">
        <lane id=":I-NW_w0_0" index="0" allow="pedestrian" speed="2.78" length="3.12" width="4.00" shape="-22.66,27.21 -21.35,28.72 -19.55,29.09 -17.76,28.21 -18.38,27.24 -19.10,26.59 -19.91,26.25 -20.79,26.24 -21.72,26.56"/>
    </edge>
    <edge id=":I-NW_w1" function="walkingarea">
        <lane id=":I-NW_w1_0" index="0" allow="pedestrian" speed="2.78" length="2.65" width="4.00" shape="-14.89,26.79 -14.87,23.09 -16.23,21.62 -16.89,22.46 -17.01,23.23 -16.74,23.99 -16.20,24.79 -15.54,25.70"/>
    </edge>
    <edge id=":I-NW_w2" function="walkingarea">
        <lane id=":I-NW_w2_0" index="0" allow="pedestrian" speed="2.78" length="2.30" width="4.00" shape="-16.23,21.62 -17.58,20.15 -20.80,19.57 -19.90,20.37 -19.13,21.15 -18.45,21.80 -17.78,22.18 -17.06,22.16"/>
    </edge>
    <edge id=":I-NW_w3" function="walkingarea">
        <lane id=":I-NW_w3_0" index="0" allow="pedestrian" speed="2.78" length="3.19" width="4.00" shape="-22.73,22.13 -23.93,23.73 -23.96,25.69 -22.66,27.21 -21.85,26.36 -21.37,25.49 -21.21,24.62 -21.38,23.76 -21.88,22.92"/>
    </edge>
    <edge id=":I-SE_0" function="internal">
        <lane id=":I-SE_0_0" index="0" disallow="pedestrian" speed="13.89" length="8.31" shape="24.41,-19.64 25.88,-17.68 27.04,-16.45 28.39,-15.41 30.41,-14.00"/>
    </edge>
    <edge id=":I-SE_c0" function="crossing" crossingEdges="SE_out">
        <lane id=":I-SE_c0_0" index="0" allow="pedestrian" speed="2.78" length="3.21" width="4.00" shape="29.70,-16.47 27.86,-13.84" outlineShape="31.34,-15.32 29.49,-12.69 25.29,-13.67 25.62,-13.30 29.49,-12.69 26.22,-14.99 28.07,-17.62 30.00,-18.81 29.91,-18.65 29.77,-17.77 29.96,-16.90 30.48,-16.07"/>
    </edge>
    <edge id=":I-SE_c1" function="crossing" crossingEdges="SE_in">
        <lane id=":I-SE_c1_0" index="0" allow="pedestrian" speed="2.78" length="3.20" width="4.00" shape="24.27,-17.09 26.87,-18.94" outlineShape="23.11,-18.72 25.72,-20.57 25.80,-20.63 25.72,-20.57 26.53,-19.66 27.37,-19.13 28.25,-18.97 29.17,-19.13 29.32,-19.20 28.03,-17.31 25.42,-15.46 24.30,-14.81 24.83,-15.45 24.94,-16.05 24.73,-16.64 24.29,-17.26 23.71,-17.94"/>
    </edge>
    <edge id=":I-SE_w0" function="walkingarea">
        <lane id=":I-SE_w0_0" index="0" allow="pedestrian" speed="2.78" length="3.12" width="4.00" shape="31.34,-15.31 32.49,-16.95 32.44,-18.74 31.20,-20.31 30.39,-19.50 29.91,-18.65 29.77,-17.77 29.96,-16.90 30.48,-16.07"/>
    </edge>
    <edge id=":I-SE_w1" function="walkingarea">
        <lane id=":I-SE_w1_0" index="0" allow="pedestrian" speed="2.78" length="3.53" width="4.00" shape="31.20,-20.31 29.97,-21.88 27.35,-21.73 25.72,-20.57 26.53,-19.66 27.37,-19.13 28.25,-18.97 29.17,-19.13 30.16,-19.59"/>
    </edge>
    <edge id=":I-SE_w2" function="walkingarea">
        <lane id=":I-SE_w2_0" index="0" allow="pedestrian" speed="2.78" length="1.65" width="4.00" shape="23.11,-18.72 22.99,-16.31 24.30,-14.81 24.83,-15.45 24.94,-16.05 24.73,-16.64 24.29,-17.26 23.71,-17.94"/>
    </edge>
    <edge id=":I-SE_w3" function="walkingarea">
        <lane id=":I-SE_w3_0" index="0" allow="pedestrian" speed="2.78" length="2.90" width="4.00" shape="24.30,-14.81 25.62,-13.30 29.49,-12.69 28.46,-13.54 27.60,-14.37 26.83,-15.05 26.08,-15.44 25.26,-15.40"/>
    </edge>
    <edge id=":I-SW_0" function="internal">
        <lane id=":I-SW_0_0" index="0" disallow="pedestrian" speed="13.89" length="8.34" shape="-18.96,-12.04 -16.81,-13.27 -15.41,-14.23 -14.19,-15.42 -12.61,-17.32"/>
    </edge>
    <edge id=":I-SW_c0" function="crossing" crossingEdges="SW_out">
        <lane id=":I-SW_c0_0" index="0" allow="pedestrian" speed="2.78" length="3.20" width="4.00" shape="-15.12,-16.76 -12.62,-14.76" outlineShape="-13.86,-18.32 -11.37,-16.31 -12.94,-12.45 -11.87,-13.67 -11.38,-16.27 -13.88,-13.20 -16.37,-15.21 -17.52,-17.19 -17.26,-17.05 -16.39,-16.87 -15.53,-17.01 -14.68,-17.50"/>
    </edge>
    <edge id=":I-SW_c1" function="crossing" crossingEdges="SW_in">
        <lane id=":I-SW_c1_0" index="0" allow="pedestrian" speed="2.78" length="3.20" width="4.00" shape="-16.43,-11.63 -18.00,-14.41" outlineShape="-18.17,-10.64 -19.74,-13.43 -18.82,-14.09 -18.22,-14.84 -17.94,-15.66 -17.97,-16.52 -18.08,-16.81 -16.26,-15.40 -14.69,-12.61 -13.95,-11.30 -13.19,-12.17 -14.08,-12.74 -14.85,-12.82 -15.56,-12.53 -16.31,-11.99 -17.15,-11.32"/>
    </edge>
    <edge id=":I-SW_w0" function="walkingarea">
        <lane id=":I-SW_w0_0" index="0" allow="pedestrian" speed="2.78" length="2.59" width="4.00" shape="-18.17,-10.64 -14.51,-10.67 -13.19,-12.17 -14.08,-12.74 -14.85,-12.82 -15.56,-12.53 -16.31,-11.99 -17.15,-11.32"/>
    </edge>
    <edge id=":I-SW_w1" function="walkingarea">
        <lane id=":I-SW_w1_0" index="0" allow="pedestrian" speed="2.78" length="1.84" width="4.00" shape="-13.19,-12.17 -11.87,-13.67 -11.37,-16.31 -12.11,-15.50 -12.85,-14.79 -13.45,-14.14 -13.79,-13.52 -13.74,-12.87"/>
    </edge>
    <edge id=":I-SW_w2" function="walkingarea">
        <lane id=":I-SW_w2_0" index="0" allow="pedestrian" speed="2.78" length="3.24" width="4.00" shape="-13.86,-18.32 -15.42,-19.58 -17.53,-19.69 -19.00,-18.34 -18.13,-17.54 -17.26,-17.05 -16.39,-16.87 -15.53,-17.01 -14.68,-17.50"/>
    </edge>
    <edge id=":I-SW_w3" function="walkingarea">
        <lane id=":I-SW_w3_0" index="0" allow="pedestrian" speed="2.78" length="2.97" width="4.00" shape="-19.00,-18.34 -20.48,-16.99 -20.48,-15.31 -19.50,-13.57 -19.74,-13.43 -18.82,-14.09 -18.22,-14.84 -17.94,-15.66 -17.97,-16.52 -18.33,-17.42"/>
    </edge>
    <edge id=":J0_w0" function="walkingarea">
        <lane id=":J0_w0_0" index="0" allow="pedestrian" speed="2.78" length="2.00" width="4.00" shape="-22.96,-22.67 -21.48,-24.02 -24.44,-21.32 -22.96,-22.67"/>
    </edge>
    <edge id=":J24_w0" function="walkingarea">
        <lane id=":J24_w0_0" index="0" allow="pedestrian" speed="2.78" length="2.00" width="4.00" shape="36.72,-24.64 37.95,-23.07 35.49,-26.21 36.72,-24.64"/>
    </edge>
    <edge id=":J25_w0" function="walkingarea">
        <lane id=":J25_w0_0" index="0" allow="pedestrian" speed="2.78" length="2.00" width="4.00" shape="36.75,31.91 35.48,33.46 38.02,30.36 36.75,31.91"/>
    </edge>
    <edge id=":J26_w0" function="walkingarea">
        <lane id=":J26_w0_0" index="0" allow="pedestrian" speed="2.78" length="2.00" width="4.00" shape="-27.59,31.45 -28.89,29.93 -26.29,32.97 -27.59,31.45"/>
    </edge>
    <edge id=":N2_in_0" function="internal">
        <lane id=":N2_in_0_0" index="0" disallow="pedestrian" speed="13.28" length="7.27" shape="-14.22,35.39 -14.20,33.25 -14.40,31.78 -14.92,30.38 -15.86,28.44"/>
    </edge>
    <edge id=":N2_in_1" function="internal">
        <lane id=":N2_in_1_0" index="0" disallow="pedestrian" speed="13.89" length="7.42" shape="-11.03,35.50 -10.83,33.29 -10.52,31.78 -10.19,30.28 -9.95,28.07"/>
        <lane id=":N2_in_1_1" index="1" disallow="pedestrian" speed="13.89" length="7.42" shape="-7.83,35.62 -7.63,33.42 -7.32,31.94 -6.99,30.45 -6.75,28.26"/>
        <lane id=":N2_in_1_2" index="2" disallow="pedestrian" speed="13.89" length="7.42" shape="-4.63,35.74 -4.44,33.56 -4.13,32.09 -3.80,30.62 -3.56,28.45"/>
        <lane id=":N2_in_1_3" index="3" disallow="pedestrian" speed="13.89" length="7.42" shape="-1.43,35.85 -1.24,33.70 -0.93,32.24 -0.60,30.79 -0.36,28.64"/>
    </edge>
    <edge id=":N2_in_w1" function="walkingarea">
        <lane id=":N2_in_w1_0" index="0" allow="pedestrian" speed="2.78" length="6.34" width="2.00" shape="-17.51,28.71 -19.31,29.60 -17.82,35.26 -15.82,35.33 -15.79,33.97 -15.84,32.95 -15.99,32.12 -16.26,31.31 -16.69,30.38"/>
    </edge>
    <edge id=":N2_out_0" function="internal">
        <lane id=":N2_out_0_0" index="0" disallow="pedestrian" speed="13.89" length="28.37" shape="22.55,22.51 18.26,27.78 15.17,33.03 13.26,39.44 12.54,48.21"/>
    </edge>
    <edge id=":N2_out_1" function="internal">
        <lane id=":N2_out_1_0" index="0" disallow="pedestrian" speed="13.89" length="26.87" shape="16.06,21.63 15.47,29.55 14.31,34.92 13.14,40.28 12.54,48.21"/>
        <lane id=":N2_out_1_1" index="1" disallow="pedestrian" speed="13.89" length="26.87" shape="12.86,21.59 12.27,29.51 11.11,34.88 9.94,40.24 9.34,48.16"/>
    </edge>
    <edge id=":N2_out_w0" function="walkingarea">
        <lane id=":N2_out_w0_0" index="0" allow="pedestrian" speed="2.78" length="26.29" width="2.00" shape="14.14,48.23 16.14,48.26 25.61,24.47 24.10,23.17 20.06,27.95 17.46,31.47 15.78,34.69 14.79,38.18 14.31,42.50"/>
    </edge>
    <edge id=":S2_in_0" function="internal">
        <lane id=":S2_in_0_0" index="0" disallow="pedestrian" speed="13.89" length="21.08" shape="19.13,-91.98 19.37,-85.71 20.47,-81.47 21.59,-77.22 21.93,-70.95"/>
        <lane id=":S2_in_0_1" index="1" disallow="pedestrian" speed="13.89" length="21.08" shape="19.13,-91.98 18.73,-71.09"/>
        <lane id=":S2_in_0_2" index="2" disallow="pedestrian" speed="13.89" length="21.08" shape="15.93,-92.16 15.53,-71.22"/>
        <lane id=":S2_in_0_3" index="3" disallow="pedestrian" speed="13.89" length="21.08" shape="12.74,-92.35 12.34,-71.36"/>
        <lane id=":S2_in_0_4" index="4" disallow="pedestrian" speed="13.89" length="21.08" shape="12.74,-92.35 11.98,-86.12 10.88,-81.92 9.80,-77.73 9.14,-71.49"/>
    </edge>
    <edge id=":S2_in_w0" function="walkingarea">
        <lane id=":S2_in_w0_0" index="0" allow="pedestrian" speed="2.78" length="21.17" width="2.00" shape="23.53,-70.88 25.52,-70.80 22.72,-91.77 20.72,-91.88 20.75,-87.39 21.28,-84.09 22.06,-81.39 22.86,-78.68 23.43,-75.38"/>
    </edge>
    <edge id=":S2_out_0" function="internal">
        <lane id=":S2_out_0_0" index="0" disallow="pedestrian" speed="13.89" length="7.99" shape="2.57,-85.56 3.19,-93.46"/>
        <lane id=":S2_out_0_1" index="1" disallow="pedestrian" speed="13.89" length="7.99" shape="5.76,-85.24 6.39,-93.27"/>
    </edge>
    <edge id=":S2_out_w0" function="walkingarea">
        <lane id=":S2_out_w0_0" index="0" allow="pedestrian" speed="2.78" length="8.38" width="2.00" shape="1.59,-93.55 -0.40,-93.66 -4.19,-86.23 -2.20,-86.04 -1.79,-87.75 -1.09,-88.91 -0.24,-89.79 0.59,-90.66 1.26,-91.82"/>
    </edge>
    <edge id=":S4_in_0" function="internal">
        <lane id=":S4_in_0_0" index="0" disallow="pedestrian" speed="12.52" length="7.44" shape="20.19,-29.92 20.22,-27.75 20.58,-26.29 21.28,-24.90 22.36,-22.97"/>
    </edge>
    <edge id=":S4_in_1" function="internal">
        <lane id=":S4_in_1_0" index="0" disallow="pedestrian" speed="13.89" length="7.99" shape="16.99,-30.06 16.60,-22.15"/>
        <lane id=":S4_in_1_1" index="1" disallow="pedestrian" speed="13.89" length="7.99" shape="13.79,-30.19 13.41,-22.23"/>
        <lane id=":S4_in_1_2" index="2" disallow="pedestrian" speed="13.89" length="7.99" shape="10.60,-30.33 10.21,-22.32"/>
        <lane id=":S4_in_1_3" index="3" disallow="pedestrian" speed="13.89" length="7.99" shape="7.40,-30.46 7.01,-22.41"/>
    </edge>
    <edge id=":S4_in_w0" function="walkingarea">
        <lane id=":S4_in_w0_0" index="0" allow="pedestrian" speed="2.78" length="5.92" width="2.00" shape="23.77,-23.72 25.54,-24.66 23.78,-29.77 21.79,-29.85 21.78,-28.48 21.90,-27.47 22.16,-26.65 22.56,-25.86 23.09,-24.94"/>
    </edge>
    <edge id=":S4_out_0" function="internal">
        <lane id=":S4_out_0_0" index="0" disallow="pedestrian" speed="13.89" length="12.38" shape="-9.95,-20.62 -7.83,-23.54 -6.82,-25.85 -6.39,-28.39 -6.06,-32.05"/>
    </edge>
    <edge id=":S4_out_1" function="internal">
        <lane id=":S4_out_1_0" index="0" disallow="pedestrian" speed="13.89" length="12.35" shape="-4.02,-19.30 -2.87,-31.72"/>
        <lane id=":S4_out_1_1" index="1" disallow="pedestrian" speed="13.89" length="12.35" shape="-0.82,-19.22 0.31,-31.39"/>
    </edge>
    <edge id=":S4_out_w0" function="walkingarea">
        <lane id=":S4_out_w0_0" index="0" allow="pedestrian" speed="2.78" length="11.25" width="2.00" shape="-7.65,-32.21 -9.64,-32.42 -13.19,-22.34 -11.63,-21.09 -9.76,-23.53 -8.85,-25.07 -8.32,-26.47 -8.05,-27.97 -7.87,-29.80"/>
    </edge>
    <edge id=":W2_in_0" function="internal">