<?xml version="1.0" encoding="UTF-8"?>

<!-- generated on 2026-04-08T18:44:32.826604+01:00 by Eclipse SUMO netedit 1.26.0
<neteditConfiguration xmlns:xsi="http://www.w3.org/2001/XMLSchema-instance" xsi:noNamespaceSchemaLocation="http://sumo.dlr.de/xsd/neteditConfiguration.xsd">

    <input>
        <sumo-net-file value="/home/tashmaf/PycharmProjects/TrafficLightControlReinforcementLearning/simulation/Botanicka.net.xml"/>
    </input>

    <output>
        <output-file value="/home/tashmaf/PycharmProjects/TrafficLightControlReinforcementLearning/simulation/Botanicka.net.xml"/>
    </output>

    <processing>
        <offset.disable-normalization value="true"/>
    </processing>

    <junctions>
        <no-internal-links value="false"/>
        <no-turnarounds value="true"/>
    </junctions>

    <netedit>
        <new-network value="false"/>
    </netedit>

</neteditConfiguration>
-->

<net version="1.20" junctionCornerDetail="5" limitTurnSpeed="5.50" xmlns:xsi="http://www.w3.org/2001/XMLSchema-instance" xsi:noNamespaceSchemaLocation="http://sumo.dlr.de/xsd/net_file.xsd">

    <location netOffset="0.00,0.00" convBoundary="-91.91,-88.47,113.10,82.26" origBoundary="10000000000.00,10000000000.00,-10000000000.00,-10000000000.00" projParameter="!"/>

    <edge id=":E2_in_0" function="internal">
        <lane id=":E2_in_0_0" index="0" disallow="pedestrian" speed="13.89" length="21.66" shape="73.68,10.37 52.15,9.93"/>
        <lane id=":E2_in_0_1" index="1" disallow="pedestrian" speed="13.89" length="21.66" shape="73.73,7.17 52.19,6.73"/>
        <lane id=":E2_in_0_2" index="2" disallow="pedestrian" speed="13.89" length="21.66" shape="73.73,7.17 67.31,6.54 62.98,5.33 58.65,4.12 52.22,3.53"/>
    </edge>
    <edge id=":E2_in_w0" function="walkingarea">
        <lane id=":E2_in_w0_0" index="0" allow="pedestrian" speed="2.78" length="21.52" width="2.00" shape="52.14,11.53 52.11,13.53 73.62,13.97 73.65,11.97"/>
    </edge>
    <edge id=":E2_out_0" function="internal">
        <lane id=":E2_out_0_0" index="0" disallow="pedestrian" speed="13.89" length="12.30" shape="15.11,-8.67 18.04,-6.44 20.07,-4.75 22.29,-3.67 25.78,-3.27"/>
    </edge>
    <edge id=":E2_out_1" function="internal">
        <lane id=":E2_out_1_0" index="0" disallow="pedestrian" speed="13.89" length="11.98" shape="13.78,-3.30 25.78,-3.27"/>
        <lane id=":E2_out_1_1" index="1" disallow="pedestrian" speed="13.89" length="11.98" shape="13.77,-0.10 25.75,-0.07"/>
    </edge>
    <edge id=":E2_out_w0" function="walkingarea">
        <lane id=":E2_out_w0_0" index="0" allow="pedestrian" speed="2.78" length="10.50" width="2.00" shape="25.80,-4.87 25.82,-6.87 17.10,-11.67 16.00,-10.00 17.94,-8.56 19.36,-7.32 20.55,-6.31 21.82,-5.55 23.47,-5.06"/>
    </edge>
    <edge id=":I_0" function="internal">
        <lane id=":I_0_0" index="0" disallow="pedestrian" speed="11.20" length="17.39" shape="-0.34,21.73 -2.67,16.35 -6.00,12.43 -10.34,9.97 -11.71,9.71"/>
    </edge>
    <edge id=":I_1" function="internal">
        <lane id=":I_1_0" index="0" disallow="pedestrian" speed="13.89" length="35.86" shape="-0.34,21.73 -2.06,13.52 -3.04,4.07 -3.42,-5.46 -3.35,-13.90"/>
    </edge>
    <edge id=":I_2" function="internal">
        <lane id=":I_2_0" index="0" disallow="pedestrian" speed="10.69" length="28.06" shape="-0.34,21.73 -1.92,12.49 -0.31,5.63 4.76,1.35 9.70,0.54"/>
    </edge>
    <edge id=":I_11" function="internal">
        <lane id=":I_11_0" index="0" disallow="pedestrian" speed="11.20" length="4.04" shape="-11.71,9.71 -15.68,8.97"/>
    </edge>
    <edge id=":I_12" function="internal">
        <lane id=":I_12_0" index="0" disallow="pedestrian" speed="10.69" length="3.92" shape="9.70,0.54 13.57,-0.10"/>
    </edge>
    <edge id=":I_3" function="internal">
        <lane id=":I_3_0" index="0" disallow="pedestrian" speed="13.89" length="29.57" shape="13.94,9.51 -15.68,8.97"/>
        <lane id=":I_3_1" index="1" disallow="pedestrian" speed="13.89" length="29.57" shape="13.96,6.31 -15.54,5.77"/>
    </edge>
    <edge id=":I_5" function="internal">
        <lane id=":I_5_0" index="0" disallow="pedestrian" speed="10.93" length="23.76" shape="13.97,3.11 6.19,1.98 0.71,-1.24 -2.47,-6.53 -2.87,-9.88"/>
    </edge>
    <edge id=":I_13" function="internal">
        <lane id=":I_13_0" index="0" disallow="pedestrian" speed="10.93" length="4.05" shape="-2.87,-9.88 -3.35,-13.90"/>
    </edge>
    <edge id=":I_6" function="internal">
        <lane id=":I_6_0" index="0" disallow="pedestrian" speed="13.89" length="34.59" shape="3.36,-13.68 2.66,-3.33 1.90,5.56 1.79,13.43 3.01,20.75"/>
    </edge>
    <edge id=":I_7" function="internal">
        <lane id=":I_7_0" index="0" disallow="pedestrian" speed="11.11" length="24.35" shape="0.16,-13.79 -1.12,-4.97 -4.17,1.22 -8.97,4.80 -11.50,5.18"/>
    </edge>
    <edge id=":I_14" function="internal">
        <lane id=":I_14_0" index="0" disallow="pedestrian" speed="11.11" length="4.08" shape="-11.50,5.18 -15.54,5.77"/>
    </edge>
    <edge id=":I_8" function="internal">
        <lane id=":I_8_0" index="0" disallow="pedestrian" speed="13.89" length="28.75" shape="-15.09,-4.12 13.58,-3.30"/>
        <lane id=":I_8_1" index="1" disallow="pedestrian" speed="13.89" length="28.75" shape="-15.23,-0.92 13.57,-0.10"/>
    </edge>
    <edge id=":I_10" function="internal">
        <lane id=":I_10_0" index="0" disallow="pedestrian" speed="12.78" length="23.85" shape="-15.38,2.27 -9.28,3.73 -4.18,7.29 -0.09,12.96 1.52,17.02"/>
    </edge>
    <edge id=":I_15" function="internal">
        <lane id=":I_15_0" index="0" disallow="pedestrian" speed="12.78" length="4.02" shape="1.52,17.02 3.01,20.75"/>
    </edge>
    <edge id=":I_c0" function="crossing" crossingEdges="N1_out N1_in">
        <lane id=":I_c0_0" index="0" allow="pedestrian" speed="2.78" length="6.70" width="4.00" shape="3.98,18.38 -2.45,20.27" outlineShape="4.54,20.30 -1.88,22.18 -1.98,22.21 -1.88,22.18 -3.18,18.77 -3.37,18.45 4.22,16.23 4.54,20.30 6.46,19.74 13.93,13.11 13.95,11.11 10.30,11.33 7.50,12.07 5.52,13.34 4.37,15.14 4.22,16.23"/>
    </edge>
    <edge id=":I_c1" function="crossing" crossingEdges="E3_out E3_in">
        <lane id=":I_c1_0" index="0" allow="pedestrian" speed="2.78" length="16.00" width="4.00" shape="11.59,-4.90 11.93,11.09" outlineShape="13.59,-4.92 13.93,11.15 10.30,11.33 9.93,11.43 9.59,-4.86"/>
    </edge>
    <edge id=":I_c2" function="crossing" crossingEdges="S3_out S5_in">
        <lane id=":I_c2_0" index="0" allow="pedestrian" speed="2.78" length="9.90" width="4.00" shape="-5.02,-11.95 4.88,-11.62" outlineShape="-5.05,-13.95 5.04,-13.62 5.25,-11.67 6.15,-9.89 6.46,-9.57 -5.08,-9.95"/>
    </edge>
    <edge id=":I_c3" function="crossing" crossingEdges="W1_out W5_in">
        <lane id=":I_c3_0" index="0" allow="pedestrian" speed="2.78" length="16.27" width="4.00" shape="-13.76,10.66 -12.99,-5.60" outlineShape="-15.76,10.66 -14.99,-5.79 -11.00,-5.50 -11.78,11.26 -12.44,11.02"/>
    </edge>
    <edge id=":I_w0" function="walkingarea">
        <lane id=":I_w0_0" index="0" allow="pedestrian" speed="2.78" length="11.38" width="4.00" shape="-15.76,10.57 -15.85,12.56 -3.80,22.75 -1.88,22.18 -3.18,18.77 -4.89,15.94 -7.00,13.71 -9.52,12.07 -12.44,11.02"/>
    </edge>
    <edge id=":I_w1" function="walkingarea">
        <lane id=":I_w1_0" index="0" allow="pedestrian" speed="2.78" length="8.27" width="4.00" shape="4.54,20.30 6.46,19.74 13.93,13.11 13.95,11.11 10.30,11.33 7.50,12.07 5.52,13.34 4.37,15.14 4.04,17.46"/>
    </edge>
    <edge id=":I_w2" function="walkingarea">
        <lane id=":I_w2_0" index="0" allow="pedestrian" speed="2.78" length="2.99" width="4.00" shape="9.59,-4.86 13.59,-4.90 13.60,-6.90 13.08,-8.15 11.27,-9.00"/>
    </edge>
    <edge id=":I_w3" function="walkingarea">
        <lane id=":I_w3_0" index="0" allow="pedestrian" speed="2.78" length="4.59" width="4.00" shape="10.52,-9.24 10.57,-11.24 6.95,-13.56 4.96,-13.64 5.25,-11.67 6.15,-9.89 7.43,-8.51 8.86,-7.75 10.22,-7.84"/>
    </edge>
    <edge id=":I_w4" function="walkingarea">
        <lane id=":I_w4_0" index="0" allow="pedestrian" speed="2.78" length="4.36" width="4.00" shape="-5.08,-9.95 -4.95,-13.95 -6.95,-14.01 -10.57,-12.90 -10.79,-10.91"/>
    </edge>
    <edge id=":I_w5" function="walkingarea">
        <lane id=":I_w5_0" index="0" allow="pedestrian" speed="2.78" length="3.83" width="4.00" shape="-11.43,-10.35 -13.43,-10.35 -14.91,-7.72 -15.03,-5.72 -11.00,-5.50"/>
    </edge>
    <edge id=":I-SE_0" function="internal">
        <lane id=":I-SE_0_0" index="0" disallow="pedestrian" speed="13.89" length="7.67" shape="9.70,-14.26 11.02,-12.40 11.97,-11.15 13.11,-10.09 14.95,-8.78"/>
    </edge>
    <edge id=":I-SE_c0" function="crossing" crossingEdges="SE_out">
        <lane id=":I-SE_c0_0" index="0" allow="pedestrian" speed="2.78" length="3.20" width="4.00" shape="14.16,-11.21 12.39,-8.55" outlineShape="15.83,-10.11 14.06,-7.44 11.36,-9.18 13.17,-8.33 14.06,-7.44 10.73,-9.65 12.50,-12.32 14.84,-13.30 14.55,-12.39 14.60,-11.58 15.01,-10.82"/>
    </edge>
    <edge id=":I-SE_c1" function="crossing" crossingEdges="SE_in">
        <lane id=":I-SE_c1_0" index="0" allow="pedestrian" speed="2.78" length="3.20" width="4.00" shape="9.58,-11.70 12.17,-13.58" outlineShape="8.33,-13.27 11.00,-15.20 11.77,-14.36 12.60,-13.84 13.47,-13.66 14.34,-13.81 14.52,-13.91 13.34,-11.96 10.75,-10.09 10.72,-9.23 11.62,-10.14 11.41,-10.82 10.85,-11.34 10.08,-11.85 9.22,-12.46"/>
    </edge>
    <edge id=":I-SE_w0" function="walkingarea">
        <lane id=":I-SE_w0_0" index="0" allow="pedestrian" speed="2.78" length="3.33" width="4.00" shape="15.83,-10.11 16.93,-11.78 17.57,-13.87 16.00,-15.11 15.30,-14.15 14.81,-13.24 14.55,-12.39 14.60,-11.58 15.01,-10.82"/>
    </edge>
    <edge id=":I-SE_w1" function="walkingarea">
        <lane id=":I-SE_w1_0" index="0" allow="pedestrian" speed="2.78" length="3.12" width="4.00" shape="16.00,-15.11 14.42,-16.34 12.62,-16.38 11.00,-15.20 11.77,-14.36 12.60,-13.84 13.47,-13.66 14.34,-13.81 15.19,-14.29"/>
    </edge>
    <edge id=":I-SE_w2" function="walkingarea">
        <lane id=":I-SE_w2_0" index="0" allow="pedestrian" speed="2.78" length="1.88" width="4.00" shape="8.41,-13.32 10.77,-11.23 10.72,-9.23 11.62,-10.14 11.41,-10.82 10.85,-11.34 10.08,-11.85 9.22,-12.46"/>
    </edge>
    <edge id=":I-SE_w3" function="walkingarea">
        <lane id=":I-SE_w3_0" index="0" allow="pedestrian" speed="2.78" length="0.24" width="4.00" shape="11.36,-9.18 13.17,-8.33 14.06,-7.44 13.40,-7.94 12.92,-8.36 12.51,-8.72 12.08,-8.98 11.52,-9.16"/>
    </edge>
    <edge id=":I-SW_0" function="internal">
        <lane id=":I-SW_0_0" index="0" disallow="pedestrian" speed="13.89" length="8.81" shape="-16.00,-10.37 -13.75,-11.65 -12.34,-12.76 -11.18,-14.15 -9.69,-16.30"/>
    </edge>
    <edge id=":I-SW_c0" function="crossing" crossingEdges="SW_out">
        <lane id=":I-SW_c0_0" index="0" allow="pedestrian" speed="2.78" length="3.20" width="4.00" shape="-12.14,-15.56 -9.52,-13.74" outlineShape="-11.00,-17.21 -8.38,-15.38 -10.85,-12.23 -10.77,-12.92 -8.38,-15.38 -10.66,-12.10 -13.28,-13.92 -14.47,-15.86 -14.36,-15.80 -13.48,-15.64 -12.60,-15.83 -11.77,-16.35"/>
    </edge>
    <edge id=":I-SW_c1" function="crossing" crossingEdges="SW_in">
        <lane id=":I-SW_c1_0" index="0" allow="pedestrian" speed="2.78" length="3.20" width="4.00" shape="-13.48,-9.89 -14.98,-12.72" outlineShape="-15.25,-8.96 -16.75,-11.78 -15.76,-12.47 -15.14,-13.25 -14.88,-14.12 -14.95,-15.06 -13.21,-13.66 -11.72,-10.83 -11.66,-10.72 -11.97,-10.95 -12.67,-10.78 -13.22,-10.45 -13.74,-10.01 -14.38,-9.50"/>
    </edge>
    <edge id=":I-SW_w0" function="walkingarea">
        <lane id=":I-SW_w0_0" index="0" allow="pedestrian" speed="2.78" length="1.24" width="4.00" shape="-15.25,-8.96 -13.43,-10.55 -11.43,-10.55 -11.97,-10.95 -12.67,-10.78 -13.22,-10.45 -13.74,-10.01 -14.38,-9.50"/>
    </edge>
    <edge id=":I-SW_w1" function="walkingarea">
        <lane id=":I-SW_w1_0" index="0" allow="pedestrian" speed="2.78" length="2.27" width="4.00" shape="-10.99,-10.93 -10.77,-12.92 -8.38,-15.38 -9.17,-14.41 -9.89,-13.72 -10.52,-13.16 -11.00,-12.55 -11.32,-11.74"/>
    </edge>
    <edge id=":I-SW_w2" function="walkingarea">
        <lane id=":I-SW_w2_0" index="0" allow="pedestrian" speed="2.78" length="3.12" width="4.00" shape="-11.00,-17.21 -12.65,-18.35 -14.40,-18.32 -16.00,-17.12 -15.21,-16.29 -14.36,-15.80 -13.48,-15.64 -12.60,-15.83 -11.77,-16.35"/>
    </edge>
    <edge id=":I-SW_w3" function="walkingarea">
        <lane id=":I-SW_w3_0" index="0" allow="pedestrian" speed="2.78" length="3.45" width="4.00" shape="-16.00,-17.12 -17.61,-15.93 -17.69,-13.55 -16.75,-11.78 -15.76,-12.47 -15.14,-13.25 -14.88,-14.12 -14.95,-15.06 -15.33,-16.07"/>
    </edge>
    <edge id=":J25_w0" function="walkingarea">
        <lane id=":J25_w0_0" index="0" allow="pedestrian" speed="2.78" length="2.00" width="4.00" shape="-17.31,-18.88 -15.71,-20.07 -18.91,-17.69 -17.31,-18.88"/>
    </edge>
    <edge id=":J26_w0" function="walkingarea">
        <lane id=":J26_w0_0" index="0" allow="pedestrian" speed="2.78" length="2.00" width="4.00" shape="18.00,-17.66 19.57,-16.43 16.43,-18.89 18.00,-17.66"/>
    </edge>
    <edge id=":S2_in_0" function="internal">
        <lane id=":S2_in_0_0" index="0" disallow="pedestrian" speed="13.89" length="22.39" shape="8.07,-74.37 7.47,-52.53"/>
        <lane id=":S2_in_0_1" index="1" disallow="pedestrian" speed="13.89" length="22.39" shape="8.07,-74.37 7.47,-68.30 6.21,-63.87 4.93,-59.25 4.27,-52.58"/>
        <lane id=":S2_in_0_2" index="2" disallow="pedestrian" speed="13.89" length="22.39" shape="8.07,-74.37 6.97,-68.36 4.61,-64.03 2.23,-59.44 1.07,-52.63"/>
    </edge>
    <edge id=":S2_in_w0" function="walkingarea">
        <lane id=":S2_in_w0_0" index="0" allow="pedestrian" speed="2.78" length="21.87" width="2.00" shape="9.07,-52.51 11.07,-52.48 11.67,-74.35 9.67,-74.36"/>
    </edge>
    <edge id=":S2_out_0" function="internal">
        <lane id=":S2_out_0_0" index="0" disallow="pedestrian" speed="13.89" length="13.21" shape="-9.01,-17.28 -6.53,-20.37 -4.64,-22.50 -3.41,-24.84 -2.91,-28.57"/>
    </edge>
    <edge id=":S2_out_1" function="internal">
        <lane id=":S2_out_1_0" index="0" disallow="pedestrian" speed="13.89" length="12.59" shape="-3.29,-15.99 -2.91,-28.57"/>
    </edge>
    <edge id=":S2_out_w0" function="walkingarea">
        <lane id=":S2_out_w0_0" index="0" allow="pedestrian" speed="2.78" length="11.35" width="2.00" shape="-4.51,-28.60 -6.51,-28.65 -11.96,-19.34 -10.32,-18.20 -8.72,-20.25 -7.33,-21.75 -6.19,-23.00 -5.32,-24.35 -4.75,-26.10"/>
    </edge>
    <edge id=":S4_in_0" function="internal">
        <lane id=":S4_in_0_0" index="0" disallow="pedestrian" speed="9.87" length="6.45" shape="6.96,-20.80 7.03,-18.93 7.37,-17.66 8.07,-16.50 9.20,-14.96"/>
    </edge>
    <edge id=":S4_in_1" function="internal">
        <lane id=":S4_in_1_0" index="0" disallow="pedestrian" speed="13.89" length="6.69" shape="3.76,-20.85 3.37,-14.13"/>
        <lane id=":S4_in_1_1" index="1" disallow="pedestrian" speed="13.89" length="6.69" shape="0.57,-20.90 0.18,-14.26"/>
    </edge>
    <edge id=":S4_in_w0" function="walkingarea">
        <lane id=":S4_in_w0_0" index="0" allow="pedestrian" speed="2.78" length="4.61" width="2.00" shape="10.49,-15.90 12.11,-17.07 10.56,-20.74 8.56,-20.77 8.59,-19.65 8.70,-18.82 8.94,-18.15 9.30,-17.52 9.81,-16.82"/>
    </edge>
    <edge id=":W2_in_0" function="internal">
        <lane id=":W2_in_0_0" index="0" disallow="pedestrian" speed="13.89" length="25.52" shape="-76.21,-15.72 -69.14,-13.73 -64.21,-12.72 -59.20,-12.04 -51.91,-11.02"/>
        <lane id=":W2_in_0_1" index="1" disallow="pedestrian" speed="13.89" length="25.52" shape="-76.21,-15.72 -69.17,-13.22 -64.45,-11.13 -59.66,-9.37 -52.39,-7.86"/>
        <lane id=":W2_in_0_2" index="2" disallow="pedestrian" speed="13.89" length="25.52" shape="-77.14,-12.66 -69.97,-10.12 -65.16,-8.01 -60.28,-6.23 -52.88,-4.69"/>
        <lane id=":W2_in_0_3" index="3" disallow="pedestrian" speed="13.89" length="25.52" shape="-77.14,-12.66 -69.95,-9.59 -65.41,-6.41 -60.78,-3.57 -53.36,-1.53"/>
    </edge>
    <edge id=":W2_in_w0" function="walkingarea">
        <lane id=":W2_in_w0_0" index="0" allow="pedestrian" speed="2.78" length="24.38" width="2.00" shape="-51.67,-12.60 -51.36,-14.58 -75.17,-19.17 -75.75,-17.25 -70.73,-15.80 -66.98,-14.87 -63.85,-14.28 -60.69,-13.84 -56.84,-13.34"/>
    </edge>
    <edge id=":W4_in_0" function="internal">
        <lane id=":W4_in_0_0" index="0" disallow="pedestrian" speed="13.89" length="19.25" shape="-35.35,-8.49 -29.71,-7.51 -25.68,-7.07 -21.83,-7.70 -16.74,-9.98"/>
    </edge>
    <edge id=":W4_in_1" function="internal">
        <lane id=":W4_in_1_0" index="0" disallow="pedestrian" speed="13.89" length="20.14" shape="-35.83,-5.33 -30.00,-4.60 -25.97,-4.41 -21.93,-4.40 -16.04,-4.18"/>
        <lane id=":W4_in_1_1" index="1" disallow="pedestrian" speed="13.89" length="20.14" shape="-36.32,-2.16 -30.39,-1.42 -26.31,-1.23 -22.21,-1.21 -16.23,-0.98"/>
        <lane id=":W4_in_1_2" index="2" disallow="pedestrian" speed="13.89" length="20.14" shape="-36.80,1.00 -30.79,1.75 -26.65,1.95 -22.49,1.98 -16.42,2.21"/>
    </edge>
    <edge id=":W4_in_w1" function="walkingarea">
        <lane id=":W4_in_w1_0" index="0" allow="pedestrian" speed="2.78" length="17.04" width="2.00" shape="-17.49,-11.39 -18.43,-13.16 -34.80,-12.05 -35.11,-10.07 -31.31,-9.42 -28.39,-8.90 -25.95,-8.68 -23.59,-8.92 -20.90,-9.77"/>
    </edge>

    <edge id="E1_in" from="E_in" to="E2_in" priority="-1" shape="113.10,6.22 73.76,5.57">
        <lane id="E1_in_0" index="0" allow="pedestrian" speed="13.89" length="39.35" width="2.00" shape="112.98,13.62 73.64,12.97"/>
        <lane id="E1_in_1" index="1" disallow="pedestrian" speed="13.89" length="39.35" shape="113.02,11.02 73.68,10.37"/>
        <lane id="E1_in_2" index="2" disallow="pedestrian" speed="13.89" length="39.35" shape="113.07,7.82 73.73,7.17"/>
    </edge>
    <edge id="E1_out" from="E2_out" to="E_out" priority="-1">
        <lane id="E1_out_0" index="0" allow="pedestrian" speed="13.89" length="41.79" width="2.00" shape="25.81,-5.87 67.60,-5.44"/>
        <lane id="E1_out_1" index="1" disallow="pedestrian" speed="13.89" length="41.79" shape="25.78,-3.27 67.57,-2.84"/>
        <lane id="E1_out_2" index="2" disallow="pedestrian" speed="13.89" length="41.79" shape="25.75,-0.07 67.54,0.36"/>
    </edge>
    <edge id="E3_in" from="E2_in" to="I" priority="-1" shape="52.24,1.93 14.73,1.52">
        <lane id="E3_in_0" index="0" allow="pedestrian" speed="13.89" length="38.22" width="2.00" shape="52.12,12.53 13.94,12.11"/>
        <lane id="E3_in_1" index="1" disallow="pedestrian" speed="13.89" length="38.22" shape="52.15,9.93 13.94,9.51"/>
        <lane id="E3_in_2" index="2" disallow="pedestrian" speed="13.89" length="38.22" shape="52.19,6.73 13.96,6.31"/>
        <lane id="E3_in_3" index="3" disallow="pedestrian" speed="13.89" length="38.22" shape="52.22,3.53 13.97,3.11"/>
    </edge>
    <edge id="E3_out" from="I" to="E2_out" priority="-1" shape="12.73,1.50 27.63,1.55">
        <lane id="E3_out_0" index="0" allow="pedestrian" speed="13.89" length="0.20" width="2.00" shape="13.59,-5.90 13.79,-5.90"/>
        <lane id="E3_out_1" index="1" disallow="pedestrian" speed="13.89" length="0.20" shape="13.58,-3.30 13.78,-3.30"/>
        <lane id="E3_out_2" index="2" disallow="pedestrian" speed="13.89" length="0.20" shape="13.57,-0.10 13.77,-0.10"/>
    </edge>
    <edge id="N1_in" from="N_in" to="I" priority="-1" shape="19.33,82.26 1.19,21.27">
        <lane id="N1_in_0" index="0" allow="pedestrian" speed="13.89" length="63.63" width="2.00" shape="15.30,83.46 -2.84,22.46"/>
        <lane id="N1_in_1" index="1" disallow="pedestrian" speed="13.89" length="63.63" shape="17.80,82.72 -0.34,21.73"/>
    </edge>
    <edge id="N1_out" from="I" to="N_out" priority="-1" shape="1.47,21.20 19.33,82.16">
        <lane id="N1_out_0" index="0" allow="pedestrian" speed="13.89" length="63.52" width="2.00" shape="5.50,20.02 23.36,80.98"/>
        <lane id="N1_out_1" index="1" disallow="pedestrian" speed="13.89" length="63.52" shape="3.01,20.75 20.87,81.71"/>
    </edge>
    <edge id="PSEI_in" from="I" to="I-SE" priority="-1" shape="5.68,-9.34 11.38,-9.22">
        <lane id="PSEI_in_0" index="0" allow="pedestrian" speed="13.89" length="0.20" width="2.00" shape="10.54,-10.24 10.74,-10.23"/>
    </edge>
    <edge id="PSEI_out" from="I-SE" to="I" priority="-1" shape="11.38,-9.22 9.97,-6.22">
        <lane id="PSEI_out_0" index="0" allow="pedestrian" speed="13.89" length="0.20" width="2.00" shape="12.27,-8.75 12.18,-8.57"/>
    </edge>
    <edge id="PSE_in" from="J26" to="I-SE" priority="-1">
        <lane id="PSE_in_0" index="0" allow="pedestrian" speed="13.89" length="3.25" width="2.00" shape="18.79,-17.04 16.78,-14.49"/>
    </edge>
    <edge id="PSE_out" from="I-SE" to="J26" priority="-1">
        <lane id="PSE_out_0" index="0" allow="pedestrian" speed="13.89" length="3.25" width="2.00" shape="15.21,-15.72 17.21,-18.28"/>
    </edge>
    <edge id="PSWI_in" from="I-SW" to="I" priority="-1" shape="-11.43,-10.98 -6.97,-10.50">
        <lane id="PSWI_in_0" index="0" allow="pedestrian" speed="13.89" length="0.20" width="2.00" shape="-10.88,-11.93 -10.68,-11.91"/>
    </edge>
    <edge id="PSWI_out" from="I" to="I-SW" priority="-1" shape="-11.42,-5.93 -11.43,-10.98">
        <lane id="PSWI_out_0" index="0" allow="pedestrian" speed="13.89" length="0.20" width="2.00" shape="-12.43,-10.35 -12.43,-10.55"/>
    </edge>
    <edge id="PSW_in" from="J25" to="I-SW" priority="-1">
        <lane id="PSW_in_0" index="0" allow="pedestrian" speed="13.89" length="2.19" width="2.00" shape="-16.51,-19.48 -15.20,-17.72"/>
    </edge>
    <edge id="PSW_out" from="I-SW" to="J25" priority="-1">
        <lane id="PSW_out_0" index="0" allow="pedestrian" speed="13.89" length="2.19" width="2.00" shape="-16.81,-16.53 -18.11,-18.28"/>
    </edge>
    <edge id="S1_in" from="S_in" to="S2_in" priority="-1" shape="6.56,-88.47 6.47,-74.38">
        <lane id="S1_in_0" index="0" allow="pedestrian" speed="13.89" length="14.09" width="2.00" shape="10.76,-88.44 10.67,-74.35"/>
        <lane id="S1_in_1" index="1" disallow="pedestrian" speed="13.89" length="14.09" shape="8.16,-88.46 8.07,-74.37"/>
    </edge>
    <edge id="S1_out" from="S2_out" to="S_out" priority="-1">
        <lane id="S1_out_0" index="0" allow="pedestrian" speed="13.89" length="50.16" width="2.00" shape="-5.51,-28.63 -4.43,-78.77"/>
        <lane id="S1_out_1" index="1" disallow="pedestrian" speed="13.89" length="50.16" shape="-2.91,-28.57 -1.83,-78.71"/>
    </edge>
    <edge id="S3_in" from="S2_in" to="S4_in" priority="-1" shape="-0.53,-52.66 -0.95,-26.24">
        <lane id="S3_in_0" index="0" allow="pedestrian" speed="13.89" length="31.74" width="2.00" shape="10.07,-52.49 9.56,-20.76"/>
        <lane id="S3_in_1" index="1" disallow="pedestrian" speed="13.89" length="31.74" shape="7.47,-52.53 6.96,-20.80"/>
        <lane id="S3_in_2" index="2" disallow="pedestrian" speed="13.89" length="31.74" shape="4.27,-52.58 3.76,-20.85"/>
        <lane id="S3_in_3" index="3" disallow="pedestrian" speed="13.89" length="31.74" shape="1.07,-52.63 0.57,-20.90"/>
    </edge>
    <edge id="S3_out" from="I" to="S2_out" priority="-1" shape="-1.78,-13.03 -1.38,-25.47">
        <lane id="S3_out_0" index="0" allow="pedestrian" speed="13.89" length="2.09" width="2.00" shape="-5.95,-13.98 -5.88,-16.07"/>
        <lane id="S3_out_1" index="1" disallow="pedestrian" speed="13.89" length="2.09" shape="-3.35,-13.90 -3.29,-15.99"/>
    </edge>
    <edge id="S5_in" from="S4_in" to="I" priority="-1" shape="-0.95,-26.24 -1.43,-14.12">
        <lane id="S5_in_0" index="0" allow="pedestrian" speed="13.89" length="0.45" width="2.00" shape="5.97,-14.03 5.96,-13.60"/>
        <lane id="S5_in_1" index="1" disallow="pedestrian" speed="13.89" length="0.45" shape="3.37,-14.13 3.36,-13.68"/>
        <lane id="S5_in_2" index="2" disallow="pedestrian" speed="13.89" length="0.45" shape="0.18,-14.26 0.16,-13.79"/>
    </edge>
    <edge id="SE_in" from="S4_in" to="I-SE" priority="-1">
        <lane id="SE_in_0" index="0" allow="pedestrian" speed="13.89" length="0.86" width="2.00" shape="11.30,-16.49 11.81,-15.79"/>
        <lane id="SE_in_1" index="1" disallow="pedestrian" speed="13.89" length="0.86" shape="9.20,-14.96 9.70,-14.26"/>
    </edge>
    <edge id="SE_out" from="I-SE" to="E2_out" priority="-1">
        <lane id="SE_out_0" index="0" allow="pedestrian" speed="13.89" length="0.20" width="2.00" shape="16.38,-10.94 16.55,-10.83"/>
        <lane id="SE_out_1" index="1" disallow="pedestrian" speed="13.89" length="0.20" shape="14.95,-8.78 15.11,-8.67"/>
    </edge>
    <edge id="SW_in" from="W4_in" to="I-SW" priority="-1" shape="-37.04,2.58 -11.43,-10.98">
        <lane id="SW_in_0" index="0" allow="pedestrian" speed="13.89" length="0.84" width="2.00" shape="-17.96,-12.27 -17.22,-12.67"/>
        <lane id="SW_in_1" index="1" disallow="pedestrian" speed="13.89" length="0.84" shape="-16.74,-9.98 -16.00,-10.37"/>
    </edge>
    <edge id="SW_out" from="I-SW" to="S2_out" priority="-1">
        <lane id="SW_out_0" index="0" allow="pedestrian" speed="13.89" length="1.20" width="2.00" shape="-11.83,-17.78 -11.14,-18.77"/>
        <lane id="SW_out_1" index="1" disallow="pedestrian" speed="13.89" length="1.20" shape="-9.69,-16.30 -9.01,-17.28"/>
    </edge>
    <edge id="W1_in" from="W_in" to="W2_in" priority="-1" shape="-91.91,-15.48 -77.61,-11.13">
        <lane id="W1_in_0" index="0" allow="pedestrian" speed="13.89" length="14.95" width="2.00" shape="-89.76,-22.56 -75.46,-18.21"/>
        <lane id="W1_in_1" index="1" disallow="pedestrian" speed="13.89" length="14.95" shape="-90.51,-20.07 -76.21,-15.72"/>
        <lane id="W1_in_2" index="2" disallow="pedestrian" speed="13.89" length="14.95" shape="-91.44,-17.01 -77.14,-12.66"/>
    </edge>
    <edge id="W1_out" from="I" to="W_out" priority="-1" shape="-12.69,4.30 -33.25,3.36 -50.08,1.51 -72.51,-3.10">
        <lane id="W1_out_0" index="0" allow="pedestrian" speed="13.89" length="58.36" width="2.00" shape="-15.80,11.57 -33.82,10.74 -51.23,8.83 -74.00,4.15"/>
        <lane id="W1_out_1" index="1" disallow="pedestrian" speed="13.89" length="58.36" shape="-15.68,8.97 -33.62,8.15 -50.83,6.26 -73.48,1.60"/>
        <lane id="W1_out_2" index="2" disallow="pedestrian" speed="13.89" length="58.36" shape="-15.54,5.77 -33.37,4.96 -50.33,3.09 -72.83,-1.53"/>
    </edge>
    <edge id="W3_in" from="W2_in" to="W4_in" priority="-1" shape="-53.60,0.05 -37.04,2.58">
        <lane id="W3_in_0" index="0" allow="pedestrian" speed="13.89" length="16.75" width="2.00" shape="-51.52,-13.59 -34.96,-11.06"/>
        <lane id="W3_in_1" index="1" disallow="pedestrian" speed="13.89" length="16.75" shape="-51.91,-11.02 -35.35,-8.49"/>
        <lane id="W3_in_2" index="2" disallow="pedestrian" speed="13.89" length="16.75" shape="-52.39,-7.86 -35.83,-5.33"/>
        <lane id="W3_in_3" index="3" disallow="pedestrian" speed="13.89" length="16.75" shape="-52.88,-4.69 -36.32,-2.16"/>
        <lane id="W3_in_4" index="4" disallow="pedestrian" speed="13.89" length="16.75" shape="-53.36,-1.53 -36.80,1.00"/>
    </edge>
    <edge id="W5_in" from="W4_in" to="I" priority="-1" shape="-37.04,2.58 -14.99,3.90">
        <lane id="W5_in_0" index="0" allow="pedestrian" speed="13.89" length="0.98" width="2.00" shape="-15.88,-6.77 -14.97,-6.72"/>
        <lane id="W5_in_1" index="1" disallow="pedestrian" speed="13.89" length="0.98" shape="-16.04,-4.18 -15.09,-4.12"/>
        <lane id="W5_in_2" index="2" disallow="pedestrian" speed="13.89" length="0.98" shape="-16.23,-0.98 -15.23,-0.92"/>
        <lane id="W5_in_3" index="3" disallow="pedestrian" speed="13.89" length="0.98" shape="-16.42,2.21 -15.38,2.27"/>
    </edge>

    <tlLogic id="I" type="static" programID="0" offset="0">
        <phase duration="3"  state="rrrrrrrrrrrrrrrrrrrrr"/>
    </tlLogic>

    <junction id="E2_in" type="priority" x="65.55" y="5.44" incLanes="E1_in_0 E1_in_1 E1_in_2" intLanes=":E2_in_0_0 :E2_in_0_1 :E2_in_0_2" shape="73.62,13.97 73.76,5.57 69.14,5.25 65.76,4.57 63.00,3.73 60.24,2.89 56.87,2.23 52.24,1.93 52.11,13.53">
        <request index="0" response="000" foes="000" cont="0"/>
        <request index="1" response="000" foes="000" cont="0"/>
        <request index="2" response="000" foes="000" cont="0"/>
    </junction>
    <junction id="E2_out" type="priority" x="27.63" y="1.55" incLanes="SE_out_0 SE_out_1 E3_out_0 E3_out_1 E3_out_2" intLanes=":E2_out_0_0 :E2_out_1_0 :E2_out_1_1" shape="25.73,1.53 25.82,-6.87 23.59,-7.07 22.02,-7.58 20.83,-8.38 19.72,-9.42 18.37,-10.65 16.51,-12.06 13.64,-7.72 13.39,-6.90 13.36,1.50">
        <request index="0" response="110" foes="110" cont="0"/>
        <request index="1" response="000" foes="001" cont="0"/>
        <request index="2" response="000" foes="001" cont="0"/>
    </junction>
    <junction id="E_in" type="dead_end" x="113.10" y="6.22" incLanes="" intLanes="" shape="113.10,6.22 112.96,14.62"/>
    <junction id="E_out" type="dead_end" x="67.52" y="1.96" incLanes="E1_out_0 E1_out_1 E1_out_2" intLanes="" shape="67.61,-6.44 67.52,1.96"/>
    <junction id="I" type="traffic_light" x="-0.31" y="-0.45" incLanes="N1_in_0 N1_in_1 E3_in_0 E3_in_1 E3_in_2 E3_in_3 PSEI_out_0 S5_in_0 S5_in_1 S5_in_2 PSWI_in_0 W5_in_0 W5_in_1 W5_in_2 W5_in_3 :I_w1_0 :I_w2_0 :I_w4_0 :I_w0_0" intLanes=":I_11_0 :I_1_0 :I_12_0 :I_3_0 :I_3_1 :I_13_0 :I_6_0 :I_14_0 :I_8_0 :I_8_1 :I_15_0 :I_c0_0 :I_c1_0 :I_c2_0 :I_c3_0" shape="-3.80,22.74 6.46,19.74 6.12,17.68 6.41,16.01 7.34,14.72 8.91,13.80 11.10,13.27 13.93,13.11 14.00,-6.90 13.83,-9.73 12.02,-10.58 12.88,-9.19 12.92,-11.19 6.95,-13.57 -6.95,-14.01 -12.71,-13.13 -12.92,-11.14 -11.43,-12.48 -13.43,-12.48 -14.92,-7.72 -15.85,12.56 -12.97,12.96 -10.44,13.88 -8.26,15.32 -6.43,17.27 -4.94,19.75">