<?xml version="1.0" encoding="UTF-8"?>
<routes>

    <!-- ================================================================
         Vehicle types — urban intersection (50 km/h zone)
         ================================================================ -->
    <vType id="car"
           vClass="passenger"
           length="4.5"
           accel="2.6"
           decel="4.5"
           maxSpeed="13.89"
           minGap="2.5"
           sigma="0.5"
           speedFactor="1.0"
           speedDev="0.1"
           color="0.2,0.6,1.0"/>

    <vType id="truck"
           vClass="truck"
           length="10.0"
           accel="1.0"
           decel="3.0"
           maxSpeed="11.11"
           minGap="3.5"
           sigma="0.5"
           speedFactor="0.9"
           speedDev="0.05"
           color="0.8,0.4,0.1"/>

    <!-- Buses -->
    <vType id="BUS_SOR_NB12" vClass="bus" length="12.18" width="2.55" accel="1.067" decel="3.0" maxSpeed="11.11" minGap="3.0" sigma="0.5" speedFactor="0.95" speedDev="0.05" color="0.9,0.8,0.0"/>
    <vType id="BUS_SOR_NB18" vClass="bus" length="18.75" width="2.55" accel="1.100" decel="3.0" maxSpeed="11.11" minGap="3.0" sigma="0.5" speedFactor="0.95" speedDev="0.05" color="0.9,0.8,0.0"/>
    <vType id="BUS_SOR_NB95" vClass="bus" length="9.60" width="2.53" accel="1.067" decel="3.0" maxSpeed="11.11" minGap="3.0" sigma="0.5" speedFactor="0.95" speedDev="0.05" color="0.9,0.8,0.0"/>
    <vType id="BUS_SOL_U15" vClass="bus" length="14.89" width="2.55" accel="1.067" decel="3.0" maxSpeed="11.11" minGap="3.0" sigma="0.5" speedFactor="0.95" speedDev="0.05" color="0.9,0.8,0.0"/>
    <vType id="BUS_SOL_U12" vClass="bus" length="12.00" width="2.55" accel="1.067" decel="3.0" maxSpeed="11.11" minGap="3.0" sigma="0.5" speedFactor="0.95" speedDev="0.05" color="0.9,0.8,0.0"/>

    <!-- Trams -->
    <vType id="TRAM_VARIO" vClass="tram" length="22.60" width="2.48" accel="0.677" decel="2.0" maxSpeed="13.89" minGap="4.0" sigma="0.5" speedFactor="1.0" speedDev="0.0" color="1.0,0.2,0.2"/>

    <!-- Traffic -->
    <trip id="veh_0" type="BUS_SOR_NB12" depart="0.0" from="W1_in" to="E1_out" departLane="best" departSpeed="max"/>
    <trip id="veh_1" type="car" depart="12.0" from="N1_in" to="W1_out" departLane="best" departSpeed="max"/>
    <trip id="veh_2" type="car" depart="24.0" from="N1_in" to="E1_out" departLane="best" departSpeed="max"/>
    <trip id="veh_3" type="car" depart="36.0" from="S1_in" to="W1_out" departLane="best" departSpeed="max"/>
    <trip id="veh_4" type="car" depart="48.0" from="E1_in" to="N1_out" departLane="best" departSpeed="max"/>
    <trip id="veh_5" type="car" depart="60.0" from="E1_in" to="W1_out" departLane="best" departSpeed="max"/>
    <trip id="veh_6" type="BUS_SOR_NB95" depart="72.0" from="S1_in" to="W1_out" departLane="best" departSpeed="max"/>
    <trip id="veh_7" type="car" depart="84.0" from="S1_in" to="W1_out" departLane="best" departSpeed="max"/>
    <trip id="veh_8" type="car" depart="96.0" from="N1_in" to="W1_out" departLane="best" departSpeed="max"/>
    <trip id="veh_9" type="car" depart="108.0" from="E1_in" to="S1_out" departLane="best" departSpeed="max"/>
    <trip id="veh_10" type="BUS_SOR_NB12" depart="120.0" from="E1_in" to="S1_out" departLane="best" departSpeed="max"/>
    <trip id="veh_11" type="BUS_SOL_U15" depart="132.0" from="N1_in" to="S1_out" departLane="best" departSpeed="max"/>
    <trip id="veh_12" type="car" depart="144.0" from="N1_in" to="W1_out" departLane="best" departSpeed="max"/>
    <trip id="veh_13" type="car" depart="156.0" from="N1_in" to="S1_out" departLane="best" departSpeed="max"/>
    <trip id="veh_14" type="car" depart="168.0" from="E1_in" to="S1_out" departLane="best" departSpeed="max"/>
    <trip id="veh_15" type="car" depart="180.0" from="N1_in" to="W1_out" departLane="best" departSpeed="max"/>
    <trip id="veh_16" type="car" depart="192.0" from="W1_in" to="S1_out" departLane="best" departSpeed="max"/>
    <trip id="veh_17" type="car" depart="204.0" from="S1_in" to="W1_out" departLane="best" departSpeed="max"/>
    <trip id="veh_18" type="car" depart="216.0" from="N1_in" to="W1_out" departLane="best" departSpeed="max"/>
    <trip id="veh_19" type="car" depart="228.0" from="E1_in" to="N1_out" departLane="best" departSpeed="max"/>
    <trip id="veh_20" type="car" depart="240.0" from="N1_in" to="S1_out" departLane="best" departSpeed="max"/>
    <trip id="veh_21" type="car" depart="252.0" from="N1_in" to="E1_out" departLane="best" departSpeed="max"/>
    <trip id="veh_22" type="car" depart="264.0" from="S1_in" to="N1_out" departLane="best" departSpeed="max"/>
    <trip id="veh_23" type="car" depart="276.0" from="S1_in" to="N1_out" departLane="best" departSpeed="max"/>
    <trip id="veh_24" type="car" depart="288.0" from="W1_in" to="N1_out" departLane="best" departSpeed="max"/>
    <trip id="veh_25" type="TRAM_VARIO" depart="300.0" from="ST_in" to="NT_out" departLane="best" departSpeed="max"/>
    <trip id="veh_26" type="car" depart="312.0" from="S1_in" to="N1_out" departLane="best" departSpeed="max"/>
    <trip id="veh_27" type="car" depart="324.0" from="S1_in" to="N1_out" departLane="best" departSpeed="max"/>
    <trip id="veh_28" type="car" depart="336.0" from="S1_in" to="W1_out" departLane="best" departSpeed="max"/>
    <trip id="veh_29" type="car" depart="348.0" from="E1_in" to="N1_out" departLane="best" departSpeed="max"/>
    <trip id="veh_30" type="car" depart="360.0" from="S1_in" to="W1_out" departLane="best" departSpeed="max"/>
    <trip id="veh_31" type="car" depart="372.0" from="N1_in" to="W1_out" departLane="best" departSpeed="max"/>
    <trip id="veh_32" type="truck" depart="384.0" from="S1_in" to="E1_out" departLane="best" departSpeed="max"/>
    <trip id="veh_33" type="car" depart="396.0" from="N1_in" to="W1_out" departLane="best" departSpeed="max"/>
    <trip id="veh_34" type="BUS_SOL_U15" depart="408.0" from="S1_in" to="N1_out" departLane="best" departSpeed="max"/>
    <trip id="veh_35" type="car" depart="420.0" from="E1_in" to="S1_out" departLane="best" departSpeed="max"/>
    <trip id="veh_36" type="car" depart="432.0" from="W1_in" to="N1_out" departLane="best" departSpeed="max"/>
    <trip id="veh_37" type="car" depart="444.0" from="S1_in" to="W1_out" departLane="best" departSpeed="max"/>
    <trip id="veh_38" type="BUS_SOL_U12" depart="456.0" from="N1_in" to="W1_out" departLane="best" departSpeed="max"/>
    <trip id="veh_39" type="car" depart="468.0" from="S1_in" to="W1_out" departLane="best" departSpeed="max"/>
    <trip id="veh_40" type="TRAM_VARIO" depart="480.0" from="NT_in" to="ST_out" departLane="best" departSpeed="max"/>
    <trip id="veh_41" type="car" depart="492.0" from="S1_in" to="W1_out" departLane="best" departSpeed="max"/>
    <trip id="veh_42" type="car" depart="504.0" from="N1_in" to="S1_out" departLane="best" departSpeed="max"/>
    <trip id="veh_43" type="car" depart="516.0" from="N1_in" to="W1_out" departLane="best" departSpeed="max"/>
    <trip id="veh_44" type="car" depart="528.0" from="E1_in" to="W1_out" departLane="best" departSpeed="max"/>
    <trip id="veh_45" type="car" depart="540.0" from="N1_in" to="S1_out" departLane="best" departSpeed="max"/>
    <trip id="veh_46" type="car" depart="552.0" from="N1_in" to="S1_out" departLane="best" departSpeed="max"/>
    <trip id="veh_47" type="car" depart="564.0" from="W1_in" to="N1_out" departLane="best" departSpeed="max"/>
    <trip id="veh_48" type="car" depart="576.0" from="N1_in" to="W1_out" departLane="best" departSpeed="max"/>
    <trip id="veh_49" type="car" depart="588.0" from="N1_in" to="E1_out" departLane="best" departSpeed="max"/>
    <trip id="veh_50" type="TRAM_VARIO" depart="600.0" from="ST_in" to="NT_out" departLane="best" departSpeed="max"/>
    <trip id="veh_51" type="car" depart="612.0" from="N1_in" to="S1_out" departLane="best" departSpeed="max"/>
    <trip id="veh_52" type="car" depart="624.0" from="N1_in" to="E1_out" departLane="best" departSpeed="max"/>
    <trip id="veh_53" type="car" depart="636.0" from="N1_in" to="E1_out" departLane="best" departSpeed="max"/>
    <trip id="veh_54" type="car" depart="648.0" from="W1_in" to="S1_out" departLane="best" departSpeed="max"/>
    <trip id="veh_55" type="truck" depart="660.0" from="W1_in" to="S1_out" departLane="best" departSpeed="max"/>
    <trip id="veh_56" type="car" depart="672.0" from="W1_in" to="S1_out" departLane="best" departSpeed="max"/>
    <trip id="veh_57" type="BUS_SOL_U15" depart="684.0" from="N1_in" to="W1_out" departLane="best" departSpeed="max"/>
    <trip id="veh_58" type="car" depart="696.0" from="E1_in" to="S1_out" departLane="best" departSpeed="max"/>
    <trip id="veh_59" type="car" depart="708.0" from="N1_in" to="W1_out" departLane="best" departSpeed="max"/>
    <trip id="veh_60" type="car" depart="720.0" from="N1_in" to="W1_out" departLane="best" departSpeed="max"/>
    <trip id="veh_61" type="car" depart="732.0" from="W1_in" to="S1_out" departLane="best" departSpeed="max"/>
    <trip id="veh_62" type="car" depart="744.0" from="N1_in" to="S1_out" departLane="best" departSpeed="max"/>
    <trip id="veh_63" type="car" depart="756.0" from="W1_in" to="S1_out" departLane="best" departSpeed="max"/>
    <trip id="veh_64" type="BUS_SOR_NB18" depart="768.0" from="S1_in" to="N1_out" departLane="best" departSpeed="max"/>
    <trip id="veh_65" type="car" depart="780.0" from="S1_in" to="E1_out" departLane="best" departSpeed="max"/>
    <trip id="veh_66" type="car" depart="792.0" from="N1_in" to="E1_out" departLane="best" departSpeed="max"/>
    <trip id="veh_67" type="car" depart="800.0" from="N1_in" to="W1_out" departLane="best" departSpeed="max"/>
    <trip id="veh_68" type="car" depart="800.0" from="S1_in" to="E1_out" departLane="best" departSpeed="max"/>
    <trip id="veh_69" type="TRAM_VARIO" depart="812.0" from="ST_in" to="NT_out" departLane="best" departSpeed="max"/>
    <trip id="veh_70" type="car" depart="812.0" from="N1_in" to="S1_out" departLane="best" departSpeed="max"/>
    <trip id="veh_71" type="BUS_SOR_NB18" depart="824.0" from="E1_in" to="N1_out" departLane="best" departSpeed="max"/>
    <trip id="veh_72" type="car" depart="824.0" from="W1_in" to="S1_out" departLane="best" departSpeed="max"/>
    <trip id="veh_73" type="car" depart="836.0" from="N1_in" to="S1_out" departLane="best" departSpeed="max"/>
    <trip id="veh_74" type="car" depart="836.0" from="S1_in" to="N1_out" departLane="best" departSpeed="max"/>
    <trip id="veh_75" type="car" depart="848.0" from="E1_in" to="N1_out" departLane="best" departSpeed="max"/>
    <trip id="veh_76" type="car" depart="848.0" from="W1_in" to="S1_out" departLane="best" departSpeed="max"/>
    <trip id="veh_77" type="TRAM_VARIO" depart="860.0" from="ST_in" to="NT_out" departLane="best" departSpeed="max"/>
    <trip id="veh_78" type="car" depart="860.0" from="E1_in" to="N1_out" departLane="best" departSpeed="max"/>
    <trip id="veh_79" type="car" depart="872.0" from="N1_in" to="W1_out" departLane="best" departSpeed="max"/>
    <trip id="veh_80" type="car" depart="872.0" from="E1_in" to="N1_out" departLane="best" departSpeed="max"/>
    <trip id="veh_81" type="car" depart="884.0" from="E1_in" to="W1_out" departLane="best" departSpeed="max"/>
    <trip id="veh_82" type="car" depart="884.0" from="W1_in" to="E1_out" departLane="best" departSpeed="max"/>
    <trip id="veh_83" type="car" depart="896.0" from="N1_in" to="E1_out" departLane="best" departSpeed="max"/>
    <trip id="veh_84" type="car" depart="896.0" from="S1_in" to="W1_out" departLane="best" departSpeed="max"/>
    <trip id="veh_85" type="car" depart="908.0" from="N1_in" to="E1_out" departLane="best" departSpeed="max"/>
    <trip id="veh_86" type="car" depart="908.0" from="S1_in" to="W1_out" departLane="best" departSpeed="max"/>
    <trip id="veh_87" type="TRAM_VARIO" depart="920.0" from="ST_in" to="NT_out" departLane="best" departSpeed="max"/>
    <trip id="veh_88" type="car" depart="920.0" from="E1_in" to="N1_out" departLane="best" departSpeed="max"/>
    <trip id="veh_89" type="car" depart="932.0" from="N1_in" to="W1_out" departLane="best" departSpeed="max"/>
    <trip id="veh_90" type="car" depart="932.0" from="S1_in" to="E1_out" departLane="best" departSpeed="max"/>
    <trip id="veh_91" type="car" depart="944.0" from="E1_in" to="S1_out" departLane="best" departSpeed="max"/>
    <trip id="veh_92" type="BUS_SOL_U15" depart="944.0" from="W1_in" to="N1_out" departLane="best" departSpeed="max"/>
    <trip id="veh_93" type="car" depart="956.0" from="S1_in" to="E1_out" departLane="best" departSpeed="max"/>
    <trip id="veh_94" type="car" depart="956.0" from="E1_in" to="N1_out" departLane="best" departSpeed="max"/>
    <trip id="veh_95" type="car" depart="968.0" from="N1_in" to="W1_out" departLane="best" departSpeed="max"/>
    <trip id="veh_96" type="car" depart="968.0" from="S1_in" to="E1_out" departLane="best" departSpeed="max"/>
    <trip id="veh_97" type="TRAM_VARIO" depart="980.0" from="ST_in" to="NT_out" departLane="best" departSpeed="max"/>
    <trip id="veh_98" type="car" depart="980.0" from="E1_in" to="N1_out" departLane="best" departSpeed="max"/>
    <trip id="veh_99" type="car" depart="992.0" from="S1_in" to="E1_out" departLane="best" departSpeed="max"/>
    <trip id="veh_100" type="car" depart="992.0" from="E1_in" to="N1_out" departLane="best" departSpeed="max"/>
    <trip id="veh_101" type="car" depart="1004.0" from="E1_in" to="N1_out" departLane="best" departSpeed="max"/>
    <trip id="veh_102" type="car" depart="1004.0" from="W1_in" to="S1_out" departLane="best" departSpeed="max"/>
    <trip id="veh_103" type="car" depart="1016.0" from="S1_in" to="E1_out" departLane="best" departSpeed="max"/>
    <trip id="veh_104" type="car" depart="1016.0" from="E1_in" to="N1_out" departLane="best" departSpeed="max"/>
    <trip id="veh_105" type="car" depart="1028.0" from="N1_in" to="W1_out" departLane="best" departSpeed="max"/>
    <trip id="veh_106" type="car" depart="1028.0" from="E1_in" to="N1_out" departLane="best" departSpeed="max"/>
    <trip id="veh_107" type="car" depart="1040.0" from="E1_in" to="W1_out" departLane="best" departSpeed="max"/>
    <trip id="veh_108" type="car" depart="1040.0" from="W1_in" to="E1_out" departLane="best" departSpeed="max"/>
    <trip id="veh_109" type="car" depart="1052.0" from="E1_in" to="N1_out" departLane="best" departSpeed="max"/>
    <trip id="veh_110" type="car" depart="1052.0" from="W1_in" to="S1_out" departLane="best" departSpeed="max"/>
    <trip id="veh_111" type="car" depart="1064.0" from="E1_in" to="W1_out" departLane="best" departSpeed="max"/>
    <trip id="veh_112" type="car" depart="1064.0" from="W1_in" to="E1_out" departLane="best" departSpeed="max"/>
    <trip id="veh_113" type="BUS_SOR_NB12" depart="1076.0" from="N1_in" to="E1_out" departLane="best" departSpeed="max"/>
    <trip id="veh_114" type="car" depart="1076.0" from="S1_in" to="W1_out" departLane="best" departSpeed="max"/>
    <trip id="veh_115" type="car" depart="1088.0" from="N1_in" to="W1_out" departLane="best" departSpeed="max"/>
    <trip id="veh_116" type="car" depart="1088.0" from="E1_in" to="N1_out" departLane="best" departSpeed="max"/>
    <trip id="veh_117" type="car" depart="1100.0" from="N1_in" to="S1_out" departLane="best" departSpeed="max"/>
    <trip id="veh_118" type="car" depart="1100.0" from="S1_in" to="N1_out" departLane="best" departSpeed="max"/>
    <trip id="veh_119" type="TRAM_VARIO" depart="1112.0" from="ST_in" to="NT_out" departLane="best" departSpeed="max"/>
    <trip id="veh_120" type="car" depart="1112.0" from="N1_in" to="S1_out" departLane="best" departSpeed="max"/>
    <trip id="veh_121" type="car" depart="1124.0" from="N1_in" to="S1_out" departLane="best" departSpeed="max"/>
    <trip id="veh_122" type="car" depart="1124.0" from="S1_in" to="N1_out" departLane="best" departSpeed="max"/>
    <trip id="veh_123" type="BUS_SOR_NB12" depart="1136.0" from="E1_in" to="N1_out" departLane="best" departSpeed="max"/>
    <trip id="veh_124" type="car" depart="1136.0" from="W1_in" to="S1_out" departLane="best" departSpeed="max"/>
    <trip id="veh_125" type="car" depart="1148.0" from="N1_in" to="W1_out" departLane="best" departSpeed="max"/>
    <trip id="veh_126" type="BUS_SOR_NB95" depart="1148.0" from="S1_in" to="E1_out" departLane="best" departSpeed="max"/>
    <trip id="veh_127" type="TRAM_VARIO" depart="1160.0" from="ST_in" to="NT_out" departLane="best" departSpeed="max"/>
    <trip id="veh_128" type="car" depart="1160.0" from="N1_in" to="S1_out" departLane="best" departSpeed="max"/>
    <trip id="veh_129" type="car" depart="1172.0" from="N1_in" to="E1_out" departLane="best" departSpeed="max"/>
    <trip id="veh_130" type="BUS_SOR_NB18" depart="1172.0" from="S1_in" to="W1_out" departLane="best" departSpeed="max"/>
    <trip id="veh_131" type="BUS_SOR_NB12" depart="1184.0" from="E1_in" to="S1_out" departLane="best" departSpeed="max"/>
    <trip id="veh_132" type="BUS_SOR_NB18" depart="1184.0" from="W1_in" to="N1_out" departLane="best" departSpeed="max"/>
    <trip id="veh_133" type="BUS_SOR_NB18" depart="1196.0" from="E1_in" to="N1_out" departLane="best" departSpeed="max"/>
    <trip id="veh_134" type="car" depart="1196.0" from="W1_in" to="S1_out" departLane="best" departSpeed="max"/>
    <trip id="veh_135" type="truck" depart="1208.0" from="N1_in" to="W1_out" departLane="best" departSpeed="max"/>
    <trip id="veh_136" type="car" depart="1208.0" from="W1_in" to="S1_out" departLane="best" departSpeed="max"/>
    <trip id="veh_137" type="car" depart="1220.0" from="E1_in" to="S1_out" departLane="best" departSpeed="max"/>
    <trip id="veh_138" type="car" depart="1220.0" from="W1_in" to="N1_out" departLane="best" departSpeed="max"/>
    <trip id="veh_139" type="car" depart="1232.0" from="S1_in" to="E1_out" departLane="best" departSpeed="max"/>
    <trip id="veh_140" type="car" depart="1232.0" from="W1_in" to="S1_out" departLane="best" departSpeed="max"/>
    <trip id="veh_141" type="car" depart="1244.0" from="E1_in" to="N1_out" departLane="best" departSpeed="max"/>
    <trip id="veh_142" type="car" depart="1244.0" from="W1_in" to="S1_out" departLane="best" departSpeed="max"/>
    <trip id="veh_143" type="car" depart="1256.0" from="E1_in" to="N1_out" departLane="best" departSpeed="max"/>
    <trip id="veh_144" type="truck" depart="1256.0" from="W1_in" to="S1_out" departLane="best" departSpeed="max"/>
    <trip id="veh_145" type="BUS_SOL_U15" depart="1268.0" from="S1_in" to="E1_out" departLane="best" departSpeed="max"/>
    <trip id="veh_146" type="BUS_SOR_NB18" depart="1268.0" from="W1_in" to="S1_out" departLane="best" departSpeed="max"/>
    <trip id="veh_147" type="car" depart="1280.0" from="S1_in" to="E1_out" departLane="best" departSpeed="max"/>
    <trip id="veh_148" type="car" depart="1280.0" from="E1_in" to="N1_out" departLane="best" departSpeed="max"/>
    <trip id="veh_149" type="car" depart="1292.0" from="E1_in" to="W1_out" departLane="best" departSpeed="max"/>
    <trip id="veh_150" type="car" depart="1292.0" from="W1_in" to="E1_out" departLane="best" departSpeed="max"/>
    <trip id="veh_151" type="car" depart="1400.0" from="N1_in" to="S1_out" departLane="best" departSpeed="max"/>
    <trip id="veh_152" type="car" depart="1400.0" from="S1_in" to="N1_out" departLane="best" departSpeed="max"/>
    <trip id="veh_153" type="car" depart="1401.5" from="N1_in" to="S1_out" departLane="best" departSpeed="max"/>
    <trip id="veh_154" type="car" depart="1401.5" from="S1_in" to="N1_out" departLane="best" departSpeed="max"/>
    <trip id="veh_155" type="car" depart="1403.0" from="N1_in" to="S1_out" departLane="best" departSpeed="max"/>
    <trip id="veh_156" type="car" depart="1403.0" from="S1_in" to="N1_out" departLane="best" departSpeed="max"/>
    <trip id="veh_157" type="car" depart="1404.5" from="N1_in" to="S1_out" departLane="best" departSpeed="max"/>
    <trip id="veh_158" type="car" depart="1404.5" from="S1_in" to="N1_out" departLane="best" departSpeed="max"/>
    <trip id="veh_159" type="car" depart="1406.0" from="N1_in" to="S1_out" departLane="best" departSpeed="max"/>
    <trip id="veh_160" type="car" depart="1406.0" from="S1_in" to="N1_out" departLane="best" departSpeed="max"/>
    <trip id="veh_161" type="car" depart="1407.5" from="N1_in" to="S1_out" departLane="best" departSpeed="max"/>
    <trip id="veh_162" type="car" depart="1407.5" from="S1_in" to="N1_out" departLane="best" departSpeed="max"/>
    <trip id="veh_163" type="car" depart="1409.0" from="N1_in" to="S1_out" departLane="best" departSpeed="max"/>
    <trip id="veh_164" type="car" depart="1409.0" from="S1_in" to="N1_out" departLane="best" departSpeed="max"/>
    <trip id="veh_165" type="car" depart="1410.5" from="N1_in" to="S1_out" departLane="best" departSpeed="max"/>
    <trip id="veh_166" type="car" depart="1410.5" from="S1_in" to="N1_out" departLane="best" departSpeed="max"/>
    <trip id="veh_167" type="car" depart="1412.0" from="N1_in" to="S1_out" departLane="best" departSpeed="max"/>
    <trip id="veh_168" type="car" depart="1412.0" from="S1_in" to="N1_out" departLane="best" departSpeed="max"/>
    <trip id="veh_169" type="car" depart="1413.5" from="N1_in" to="S1_out" departLane="best" departSpeed="max"/>
    <trip id="veh_170" type="car" depart="1413.5" from="S1_in" to="N1_out" departLane="best" departSpeed="max"/>
    <trip id="veh_171" type="truck" depart="1500.0" from="E1_in" to="S1_out" departLane="best" departSpeed="max"/>
    <trip id="veh_172" type="car" depart="1500.0" from="W1_in" to="N1_out" departLane="best" departSpeed="max"/>
    <trip id="veh_173" type="car" depart="1501.5" from="E1_in" to="S1_out" departLane="best" departSpeed="max"/>
    <trip id="veh_174" type="car" depart="1501.5" from="W1_in" to="N1_out" departLane="best" departSpeed="max"/>
    <trip id="veh_175" type="car" depart="1503.0" from="E1_in" to="S1_out" departLane="best" departSpeed="max"/>
    <trip id="veh_176" type="car" depart="1503.0" from="W1_in" to="N1_out" departLane="best" departSpeed="max"/>
    <trip id="veh_177" type="car" depart="1504.5" from="E1_in" to="S1_out" departLane="best" departSpeed="max"/>
    <trip id="veh_178" type="car" depart="1504.5" from="W1_in" to="N1_out" departLane="best" departSpeed="max"/>
    <trip id="veh_179" type="car" depart="1506.0" from="E1_in" to="S1_out" departLane="best" departSpeed="max"/>
    <trip id="veh_180" type="car" depart="1506.0" from="W1_in" to="N1_out" departLane="best" departSpeed="max"/>
    <trip id="veh_181" type="car" depart="1507.5" from="E1_in" to="S1_out" departLane="best" departSpeed="max"/>
    <trip id="veh_182" type="car" depart="1507.5" from="W1_in" to="N1_out" departLane="best" departSpeed="max"/>
    <trip id="veh_183" type="truck" depart="1509.0" from="E1_in" to="S1_out" departLane="best" departSpeed="max"/>
    <trip id="veh_184" type="car" depart="1509.0" from="W1_in" to="N1_out" departLane="best" departSpeed="max"/>
    <trip id="veh_185" type="car" depart="1510.5" from="E1_in" to="S1_out" departLane="best" departSpeed="max"/>
    <trip id="veh_186" type="truck" depart="1510.5" from="W1_in" to="N1_out" departLane="best" departSpeed="max"/>
</routes>
