<?xml version="1.0" encoding="UTF-8"?>

<!-- generated on 2026-04-21T08:59:26.189086+01:00 by Eclipse SUMO netedit 1.26.0
<neteditConfiguration xmlns:xsi="http://www.w3.org/2001/XMLSchema-instance" xsi:noNamespaceSchemaLocation="http://sumo.dlr.de/xsd/neteditConfiguration.xsd">

    <input>
        <sumo-net-file value="/home/tashmaf/PycharmProjects/TrafficLightControlReinforcementLearning/simulation/Canonical.net.xml"/>
    </input>

    <output>
        <output-file value="/home/tashmaf/PycharmProjects/TrafficLightControlReinforcementLearning/simulation/Canonical.net.xml"/>
    </output>

    <processing>
        <geometry.min-radius.fix.railways value="false"/>
        <geometry.avoid-overlap value="false"/>
        <geometry.max-grade.fix value="false"/>
        <offset.disable-normalization value="true"/>
        <lefthand value="0"/>
    </processing>

    <junctions>
        <no-internal-links value="false"/>
        <no-turnarounds value="true"/>
        <junctions.corner-detail value="5"/>
        <junctions.limit-turn-speed value="5.50"/>
        <rectangular-lane-cut value="0"/>
    </junctions>

    <pedestrian>
        <walkingareas value="0"/>
    </pedestrian>

</neteditConfiguration>
-->

<net version="1.20" junctionCornerDetail="5" limitTurnSpeed="5.50" avoidOverlap="0" xmlns:xsi="http://www.w3.org/2001/XMLSchema-instance" xsi:noNamespaceSchemaLocation="http://sumo.dlr.de/xsd/net_file.xsd">

    <location netOffset="0.00,0.00" convBoundary="-130.00,-120.00,130.00,130.00" origBoundary="-10000000000.00,-10000000000.00,10000000000.00,10000000000.00" projParameter="!"/>

    <edge id=":E2_in_0" function="internal">
        <lane id=":E2_in_0_0" index="0" disallow="pedestrian" speed="8.41" length="6.31" shape="47.25,18.00 45.78,18.16 44.36,18.65 42.99,19.46 41.67,20.59"/>
    </edge>
    <edge id=":E2_in_1" function="internal">
        <lane id=":E2_in_1_0" index="0" disallow="pedestrian" speed="13.89" length="7.15" shape="47.25,14.80 40.10,14.80"/>
        <lane id=":E2_in_1_1" index="1" disallow="pedestrian" speed="13.89" length="7.15" shape="47.25,11.60 40.10,11.60"/>
    </edge>
    <edge id=":E2_in_w0" function="walkingarea">
        <lane id=":E2_in_w0_0" index="0" allow="pedestrian" speed="2.78" length="4.17" width="2.00" shape="42.80,21.72 44.22,23.14 47.25,21.60 47.25,19.60 46.48,19.66 45.72,19.84 44.98,20.13 44.24,20.54 43.52,21.07"/>
    </edge>
    <edge id=":E2_out_0" function="internal">
        <lane id=":E2_out_0_0" index="0" disallow="pedestrian" speed="8.41" length="6.31" shape="41.67,-10.59 42.99,-9.46 44.36,-8.65 45.78,-8.16 47.25,-8.00"/>
    </edge>
    <edge id=":E2_out_1" function="internal">
        <lane id=":E2_out_1_0" index="0" disallow="pedestrian" speed="13.89" length="7.15" shape="40.10,-4.80 47.25,-4.80"/>
        <lane id=":E2_out_1_1" index="1" disallow="pedestrian" speed="13.89" length="7.15" shape="40.10,-1.60 47.25,-1.60"/>
    </edge>
    <edge id=":E2_out_w0" function="walkingarea">
        <lane id=":E2_out_w0_0" index="0" allow="pedestrian" speed="2.78" length="4.17" width="2.00" shape="47.25,-9.60 47.25,-11.60 44.22,-13.14 42.80,-11.72 43.52,-11.07 44.24,-10.54 44.98,-10.13 45.72,-9.84 46.48,-9.66"/>
    </edge>
    <edge id=":I_0" function="internal">
        <lane id=":I_0_0" index="0" disallow="pedestrian" speed="13.89" length="50.00" shape="-14.80,30.00 -14.80,-20.00"/>
    </edge>
    <edge id=":I_1" function="internal">
        <lane id=":I_1_0" index="0" disallow="pedestrian" speed="13.89" length="49.15" shape="-11.60,30.00 -6.35,21.66 5.87,11.18 19.75,2.20 26.00,-0.12"/>
    </edge>
    <edge id=":I_10" function="internal">
        <lane id=":I_10_0" index="0" disallow="pedestrian" speed="13.89" length="4.27" shape="26.00,-0.12 30.00,-1.60"/>
    </edge>
    <edge id=":I_2" function="internal">
        <lane id=":I_2_0" index="0" allow="tram rail_urban rail rail_electric rail_fast cable_car subway" speed="13.89" length="50.00" shape="-4.10,30.00 -4.10,-20.00"/>
    </edge>
    <edge id=":I_3" function="internal">
        <lane id=":I_3_0" index="0" disallow="pedestrian" speed="13.89" length="60.00" shape="30.00,14.80 -30.00,14.80"/>
    </edge>
    <edge id=":I_4" function="internal">
        <lane id=":I_4_0" index="0" disallow="pedestrian" speed="13.89" length="55.17" shape="30.00,11.60 11.80,9.62 -1.20,3.70 -9.00,-6.18 -10.85,-16.00"/>
    </edge>
    <edge id=":I_11" function="internal">
        <lane id=":I_11_0" index="0" disallow="pedestrian" speed="13.89" length="4.07" shape="-10.85,-16.00 -11.60,-20.00"/>
    </edge>
    <edge id=":I_5" function="internal">
        <lane id=":I_5_0" index="0" disallow="pedestrian" speed="13.89" length="50.00" shape="14.80,-20.00 14.80,30.00"/>
    </edge>
    <edge id=":I_6" function="internal">
        <lane id=":I_6_0" index="0" disallow="pedestrian" speed="13.89" length="49.15" shape="11.60,-20.00 6.35,-11.66 -5.87,-1.18 -19.75,7.80 -26.00,10.12"/>
    </edge>
    <edge id=":I_12" function="internal">
        <lane id=":I_12_0" index="0" disallow="pedestrian" speed="13.89" length="4.27" shape="-26.00,10.12 -30.00,11.60"/>
    </edge>
    <edge id=":I_7" function="internal">
        <lane id=":I_7_0" index="0" allow="tram rail_urban rail rail_electric rail_fast cable_car subway" speed="13.89" length="50.00" shape="4.10,-20.00 4.10,30.00"/>
    </edge>
    <edge id=":I_8" function="internal">
        <lane id=":I_8_0" index="0" disallow="pedestrian" speed="13.89" length="60.00" shape="-30.00,-4.80 30.00,-4.80"/>
    </edge>
    <edge id=":I_9" function="internal">
        <lane id=":I_9_0" index="0" disallow="pedestrian" speed="13.89" length="55.17" shape="-30.00,-1.60 -11.80,0.38 1.20,6.30 9.00,16.18 10.85,26.00"/>
    </edge>
    <edge id=":I_13" function="internal">
        <lane id=":I_13_0" index="0" disallow="pedestrian" speed="13.89" length="4.07" shape="10.85,26.00 11.60,30.00"/>
    </edge>
    <edge id=":I_c0" function="crossing" crossingEdges="N3_in">
        <lane id=":I_c0_0" index="0" allow="pedestrian" speed="2.78" length="6.40" width="4.00" shape="-10.00,28.00 -16.40,28.00" outlineShape="-9.90,30.00 -16.40,30.00 -16.61,27.53 -17.00,26.00 -10.00,26.00 -10.00,30.00 -10.00,26.00"/>
    </edge>
    <edge id=":I_c1" function="crossing" crossingEdges="NT_out NT_in">
        <lane id=":I_c1_0" index="0" allow="pedestrian" speed="2.78" length="11.40" width="4.00" shape="5.70,28.00 -5.70,28.00" outlineShape="5.80,30.00 -5.80,30.00 -5.70,26.00 -5.70,30.00 -5.70,26.00 5.70,26.00 5.70,30.00 5.70,26.00"/>
    </edge>
    <edge id=":I_c2" function="crossing" crossingEdges="E14">
        <lane id=":I_c2_0" index="0" allow="pedestrian" speed="2.78" length="6.40" width="4.00" shape="16.40,28.00 10.00,28.00" outlineShape="16.40,30.00 9.90,30.00 10.00,26.00 10.00,30.00 10.00,26.00 17.00,26.00 16.61,27.53"/>
    </edge>
    <edge id=":I_c3" function="crossing" crossingEdges="E3_in">
        <lane id=":I_c3_0" index="0" allow="pedestrian" speed="2.78" length="6.40" width="4.00" shape="28.00,10.00 28.00,16.40" outlineShape="30.00,9.90 30.00,16.40 27.53,16.61 26.00,17.00 26.00,10.00 30.00,10.00 26.00,10.00"/>
    </edge>
    <edge id=":I_c4" function="crossing" crossingEdges="E3_out">
        <lane id=":I_c4_0" index="0" allow="pedestrian" speed="2.78" length="6.40" width="4.00" shape="28.00,-6.40 28.00,-0.00" outlineShape="30.00,-6.50 30.00,0.10 26.00,-0.00 30.00,-0.00 26.00,0.00 26.00,-7.00 27.53,-6.61"/>
    </edge>
    <edge id=":I_c5" function="crossing" crossingEdges="S3_in">
        <lane id=":I_c5_0" index="0" allow="pedestrian" speed="2.78" length="6.40" width="4.00" shape="10.00,-18.00 16.40,-18.00" outlineShape="9.90,-20.00 16.40,-20.00 16.61,-17.53 17.00,-16.00 10.00,-16.00 10.00,-20.00 10.00,-16.00"/>
    </edge>
    <edge id=":I_c6" function="crossing" crossingEdges="ST_out ST_in">
        <lane id=":I_c6_0" index="0" allow="pedestrian" speed="2.78" length="11.40" width="4.00" shape="-5.70,-18.00 5.70,-18.00" outlineShape="-5.80,-20.00 5.80,-20.00 5.70,-16.00 5.70,-20.00 5.70,-16.00 -5.70,-16.00 -5.70,-20.00 -5.70,-16.00"/>
    </edge>
    <edge id=":I_c7" function="crossing" crossingEdges="E21">
        <lane id=":I_c7_0" index="0" allow="pedestrian" speed="2.78" length="6.40" width="4.00" shape="-16.40,-18.00 -10.00,-18.00" outlineShape="-16.40,-20.00 -9.90,-20.00 -10.00,-16.00 -10.00,-20.00 -10.00,-16.00 -17.00,-16.00 -16.61,-17.53"/>
    </edge>
    <edge id=":I_c8" function="crossing" crossingEdges="W3_in">
        <lane id=":I_c8_0" index="0" allow="pedestrian" speed="2.78" length="6.40" width="4.00" shape="-28.00,-0.00 -28.00,-6.40" outlineShape="-30.00,0.10 -30.00,-6.50 -27.53,-6.61 -26.00,-7.00 -26.00,0.00 -30.00,-0.00 -26.00,-0.00"/>
    </edge>
    <edge id=":I_c9" function="crossing" crossingEdges="E22">
        <lane id=":I_c9_0" index="0" allow="pedestrian" speed="2.78" length="6.40" width="4.00" shape="-28.00,16.40 -28.00,10.00" outlineShape="-30.00,16.40 -30.00,9.90 -26.00,10.00 -30.00,10.00 -26.00,10.00 -26.00,17.00 -27.53,16.61"/>
    </edge>
    <edge id=":I_w0" function="walkingarea">
        <lane id=":I_w0_0" index="0" allow="pedestrian" speed="2.78" length="5.85" width="4.00" shape="-22.50,22.50 -21.09,23.91 -18.40,30.00 -16.40,30.00 -16.61,27.53 -17.22,25.15 -18.17,23.16 -19.40,21.85 -20.86,21.53"/>
    </edge>
    <edge id=":I_w1" function="walkingarea">
        <lane id=":I_w1_0" index="0" allow="pedestrian" speed="2.78" length="5.85" width="4.00" shape="16.40,30.00 18.40,30.00 21.09,23.91 22.50,22.50 20.86,21.53 19.40,21.85 18.17,23.16 17.22,25.15 16.61,27.53"/>
    </edge>
    <edge id=":I_w2" function="walkingarea">
        <lane id=":I_w2_0" index="0" allow="pedestrian" speed="2.78" length="5.85" width="4.00" shape="22.50,22.50 23.91,21.09 30.00,18.40 30.00,16.40 27.53,16.61 25.15,17.22 23.16,18.17 21.85,19.40 21.53,20.86"/>
    </edge>
    <edge id=":I_w3" function="walkingarea">
        <lane id=":I_w3_0" index="0" allow="pedestrian" speed="2.78" length="5.85" width="4.00" shape="30.00,-6.40 30.00,-8.40 23.91,-11.09 22.50,-12.50 21.53,-10.86 21.85,-9.40 23.16,-8.17 25.15,-7.22 27.53,-6.61"/>
    </edge>
    <edge id=":I_w4" function="walkingarea">
        <lane id=":I_w4_0" index="0" allow="pedestrian" speed="2.78" length="5.85" width="4.00" shape="22.50,-12.50 21.09,-13.91 18.40,-20.00 16.40,-20.00 16.61,-17.53 17.22,-15.15 18.17,-13.16 19.40,-11.85 20.86,-11.53"/>
    </edge>
    <edge id=":I_w5" function="walkingarea">
        <lane id=":I_w5_0" index="0" allow="pedestrian" speed="2.78" length="5.85" width="4.00" shape="-16.40,-20.00 -18.40,-20.00 -21.09,-13.91 -22.50,-12.50 -20.86,-11.53 -19.40,-11.85 -18.17,-13.16 -17.22,-15.15 -16.61,-17.53"/>
    </edge>
    <edge id=":I_w6" function="walkingarea">
        <lane id=":I_w6_0" index="0" allow="pedestrian" speed="2.78" length="5.85" width="4.00" shape="-22.50,-12.50 -23.91,-11.09 -30.00,-8.40 -30.00,-6.40 -27.53,-6.61 -25.15,-7.22 -23.16,-8.17 -21.85,-9.40 -21.53,-10.86"/>
    </edge>
    <edge id=":I_w7" function="walkingarea">
        <lane id=":I_w7_0" index="0" allow="pedestrian" speed="2.78" length="5.85" width="4.00" shape="-30.00,16.40 -30.00,18.40 -23.91,21.09 -22.50,22.50 -21.53,20.86 -21.85,19.40 -23.16,18.17 -25.15,17.22 -27.53,16.61"/>
    </edge>
    <edge id=":I_w8" function="walkingarea">
        <lane id=":I_w8_0" index="0" allow="pedestrian" speed="2.78" length="4.30" width="4.00" shape="-5.70,26.00 -5.70,30.00 -10.00,30.00 -10.00,26.00"/>
    </edge>
    <edge id=":I_w9" function="walkingarea">
        <lane id=":I_w9_0" index="0" allow="pedestrian" speed="2.78" length="4.30" width="4.00" shape="10.00,26.00 10.00,30.00 5.70,30.00 5.70,26.00"/>
    </edge>
    <edge id=":I_w10" function="walkingarea">
        <lane id=":I_w10_0" index="0" allow="pedestrian" speed="2.78" length="10.00" width="4.00" shape="26.00,-0.00 30.00,-0.00 30.00,10.00 26.00,10.00"/>
    </edge>
    <edge id=":I_w11" function="walkingarea">
        <lane id=":I_w11_0" index="0" allow="pedestrian" speed="2.78" length="4.30" width="4.00" shape="5.70,-16.00 5.70,-20.00 10.00,-20.00 10.00,-16.00"/>
    </edge>
    <edge id=":I_w12" function="walkingarea">
        <lane id=":I_w12_0" index="0" allow="pedestrian" speed="2.78" length="4.30" width="4.00" shape="-10.00,-16.00 -10.00,-20.00 -5.70,-20.00 -5.70,-16.00"/>
    </edge>
    <edge id=":I_w13" function="walkingarea">
        <lane id=":I_w13_0" index="0" allow="pedestrian" speed="2.78" length="10.00" width="4.00" shape="-26.00,10.00 -30.00,10.00 -30.00,-0.00 -26.00,-0.00"/>
    </edge>
    <edge id=":I-NE_0" function="internal">
        <lane id=":I-NE_0_0" index="0" disallow="pedestrian" speed="13.89" length="7.00" shape="33.61,28.66 28.66,33.61"/>
    </edge>
    <edge id=":I-NE_c0" function="crossing" crossingEdges="NE_in">
        <lane id=":I-NE_c0_0" index="0" allow="pedestrian" speed="2.78" length="3.20" width="4.00" shape="31.06,28.94 33.32,31.20" outlineShape="32.47,27.53 34.74,29.79 31.91,32.62 29.79,34.74 31.20,36.15 33.32,36.15 34.74,34.74 36.15,33.32 36.15,31.20 34.74,29.79 31.91,32.62 29.65,30.35 28.94,28.94 29.58,29.40 30.16,29.47 30.71,29.24 31.26,28.79 31.84,28.19"/>
    </edge>
    <edge id=":I-NE_c1" function="crossing" crossingEdges="NE_out">
        <lane id=":I-NE_c1_0" index="0" allow="pedestrian" speed="2.78" length="3.20" width="4.00" shape="31.20,33.32 28.94,31.06" outlineShape="29.86,34.81 27.53,32.47 28.94,28.94 27.53,30.35 27.53,32.47 30.35,29.65 32.62,31.91 29.79,34.74"/>
    </edge>
    <edge id=":I-NE_w0" function="walkingarea">
        <lane id=":I-NE_w0_0" index="0" allow="pedestrian" speed="2.78" length="3.98" width="4.00" shape="32.62,31.91 29.79,34.74 31.20,36.15 33.32,36.15 34.74,34.74 36.15,33.32 36.15,31.20 34.74,29.79 31.91,32.62"/>
    </edge>
    <edge id=":I-NE_w1" function="walkingarea">
        <lane id=":I-NE_w1_0" index="0" allow="pedestrian" speed="2.78" length="1.58" width="4.00" shape="32.47,27.53 30.35,27.53 28.94,28.94 29.58,29.40 30.16,29.47 30.71,29.24 31.26,28.79 31.84,28.19"/>
    </edge>
    <edge id=":I-NE_w2" function="walkingarea">
        <lane id=":I-NE_w2_0" index="0" allow="pedestrian" speed="2.78" length="1.58" width="4.00" shape="28.94,28.94 27.53,30.35 27.53,32.47 28.19,31.84 28.79,31.26 29.24,30.71 29.47,30.16 29.40,29.58"/>
    </edge>
    <edge id=":I-NW_0" function="internal">
        <lane id=":I-NW_0_0" index="0" disallow="pedestrian" speed="13.89" length="7.00" shape="-28.66,33.61 -33.61,28.66"/>
    </edge>
    <edge id=":I-NW_c0" function="crossing" crossingEdges="NW_in">
        <lane id=":I-NW_c0_0" index="0" allow="pedestrian" speed="2.78" length="3.20" width="4.00" shape="-28.94,31.06 -31.20,33.32" outlineShape="-27.53,32.47 -29.79,34.74 -32.62,31.91 -34.74,29.79 -36.15,31.20 -36.15,33.32 -34.74,34.74 -33.32,36.15 -31.20,36.15 -29.79,34.74 -32.62,31.91 -30.35,29.65 -28.94,28.94 -29.40,29.58 -29.47,30.16 -29.24,30.71 -28.79,31.26 -28.19,31.84"/>
    </edge>
    <edge id=":I-NW_c1" function="crossing" crossingEdges="NW_out">
        <lane id=":I-NW_c1_0" index="0" allow="pedestrian" speed="2.78" length="3.20" width="4.00" shape="-33.32,31.20 -31.06,28.94" outlineShape="-34.81,29.86 -32.47,27.53 -28.94,28.94 -30.35,27.53 -32.47,27.53 -29.65,30.35 -31.91,32.62 -34.74,29.79"/>
    </edge>
    <edge id=":I-NW_w0" function="walkingarea">
        <lane id=":I-NW_w0_0" index="0" allow="pedestrian" speed="2.78" length="3.98" width="4.00" shape="-31.91,32.62 -34.74,29.79 -36.15,31.20 -36.15,33.32 -34.74,34.74 -33.32,36.15 -31.20,36.15 -29.79,34.74 -32.62,31.91"/>
    </edge>
    <edge id=":I-NW_w1" function="walkingarea">
        <lane id=":I-NW_w1_0" index="0" allow="pedestrian" speed="2.78" length="1.58" width="4.00" shape="-27.53,32.47 -27.53,30.35 -28.94,28.94 -29.40,29.58 -29.47,30.16 -29.24,30.71 -28.79,31.26 -28.19,31.84"/>
    </edge>
    <edge id=":I-NW_w2" function="walkingarea">
        <lane id=":I-NW_w2_0" index="0" allow="pedestrian" speed="2.78" length="1.58" width="4.00" shape="-28.94,28.94 -30.35,27.53 -32.47,27.53 -31.84,28.19 -31.26,28.79 -30.71,29.24 -30.16,29.47 -29.58,29.40"/>
    </edge>
    <edge id=":I-SE_0" function="internal">
        <lane id=":I-SE_0_0" index="0" disallow="pedestrian" speed="13.89" length="7.00" shape="28.66,-23.61 33.61,-18.66"/>
    </edge>
    <edge id=":I-SE_c0" function="crossing" crossingEdges="SE_out">
        <lane id=":I-SE_c0_0" index="0" allow="pedestrian" speed="2.78" length="3.20" width="4.00" shape="33.32,-21.20 31.06,-18.94" outlineShape="34.74,-19.79 32.47,-17.53 28.94,-18.94 30.35,-17.53 32.47,-17.53 29.65,-20.35 31.91,-22.62 34.81,-19.86 36.15,-21.20 36.15,-23.32 34.74,-24.74 33.32,-26.15 31.20,-26.15 29.79,-24.74 31.91,-22.62"/>
    </edge>
    <edge id=":I-SE_c1" function="crossing" crossingEdges="SE_in">
        <lane id=":I-SE_c1_0" index="0" allow="pedestrian" speed="2.78" length="3.20" width="4.00" shape="28.94,-21.06 31.20,-23.32" outlineShape="27.45,-22.40 29.79,-24.74 32.62,-21.91 34.74,-19.79 36.15,-21.20 36.15,-23.32 34.74,-24.74 33.32,-26.15 31.20,-26.15 29.79,-24.74 32.62,-21.91 30.35,-19.65 28.94,-18.94 29.40,-19.58 29.47,-20.16 29.24,-20.71 28.79,-21.26 28.19,-21.84"/>
    </edge>
    <edge id=":I-SE_w0" function="walkingarea">
        <lane id=":I-SE_w0_0" index="0" allow="pedestrian" speed="2.78" length="3.98" width="4.00" shape="31.91,-22.62 34.74,-19.79 36.15,-21.20 36.15,-23.32 34.74,-24.74 33.32,-26.15 31.20,-26.15 29.79,-24.74 32.62,-21.91"/>
    </edge>
    <edge id=":I-SE_w1" function="walkingarea">
        <lane id=":I-SE_w1_0" index="0" allow="pedestrian" speed="2.78" length="1.58" width="4.00" shape="27.53,-22.47 27.53,-20.35 28.94,-18.94 29.40,-19.58 29.47,-20.16 29.24,-20.71 28.79,-21.26 28.19,-21.84"/>
    </edge>
    <edge id=":I-SE_w2" function="walkingarea">
        <lane id=":I-SE_w2_0" index="0" allow="pedestrian" speed="2.78" length="1.58" width="4.00" shape="28.94,-18.94 30.35,-17.53 32.47,-17.53 31.84,-18.19 31.26,-18.79 30.71,-19.24 30.16,-19.47 29.58,-19.40"/>
    </edge>
    <edge id=":I-SW_0" function="internal">
        <lane id=":I-SW_0_0" index="0" disallow="pedestrian" speed="13.89" length="7.00" shape="-33.61,-18.66 -28.66,-23.61"/>
    </edge>
    <edge id=":I-SW_c0" function="crossing" crossingEdges="SW_out">
        <lane id=":I-SW_c0_0" index="0" allow="pedestrian" speed="2.78" length="3.20" width="4.00" shape="-31.20,-23.32 -28.94,-21.06" outlineShape="-29.86,-24.81 -27.45,-22.40 -28.94,-18.94 -27.53,-20.35 -27.53,-22.47 -30.35,-19.65 -32.62,-21.91 -29.79,-24.74 -31.20,-26.15 -33.32,-26.15 -34.74,-24.74 -36.15,-23.32 -36.15,-21.20 -34.74,-19.79 -32.62,-21.91"/>
    </edge>
    <edge id=":I-SW_c1" function="crossing" crossingEdges="SW_in">
        <lane id=":I-SW_c1_0" index="0" allow="pedestrian" speed="2.78" length="3.20" width="4.00" shape="-31.06,-18.94 -33.32,-21.20" outlineShape="-32.47,-17.53 -34.74,-19.79 -31.91,-22.62 -29.79,-24.74 -31.20,-26.15 -33.32,-26.15 -34.74,-24.74 -36.15,-23.32 -36.15,-21.20 -34.81,-19.86 -31.91,-22.62 -29.65,-20.35 -28.94,-18.94 -29.58,-19.40 -30.16,-19.47 -30.71,-19.24 -31.26,-18.79 -31.84,-18.19"/>
    </edge>
    <edge id=":I-SW_w0" function="walkingarea">
        <lane id=":I-SW_w0_0" index="0" allow="pedestrian" speed="2.78" length="1.58" width="4.00" shape="-32.47,-17.53 -30.35,-17.53 -28.94,-18.94 -29.58,-19.40 -30.16,-19.47 -30.71,-19.24 -31.26,-18.79 -31.84,-18.19"/>
    </edge>
    <edge id=":I-SW_w1" function="walkingarea">
        <lane id=":I-SW_w1_0" index="0" allow="pedestrian" speed="2.78" length="1.58" width="4.00" shape="-28.94,-18.94 -27.53,-20.35 -27.53,-22.47 -28.19,-21.84 -28.79,-21.26 -29.24,-20.71 -29.47,-20.16 -29.40,-19.58"/>
    </edge>
    <edge id=":I-SW_w2" function="walkingarea">
        <lane id=":I-SW_w2_0" index="0" allow="pedestrian" speed="2.78" length="3.98" width="4.00" shape="-32.62,-21.91 -29.79,-24.74 -31.20,-26.15 -33.32,-26.15 -34.74,-24.74 -36.15,-23.32 -36.15,-21.20 -34.74,-19.79 -31.91,-22.62"/>
    </edge>
    <edge id=":J10_0" function="internal">
        <lane id=":J10_0_0" index="0" disallow="pedestrian" speed="8.41" length="6.31" shape="-41.67,20.59 -42.99,19.46 -44.36,18.65 -45.78,18.16 -47.25,18.00"/>
    </edge>
    <edge id=":J10_1" function="internal">
        <lane id=":J10_1_0" index="0" disallow="pedestrian" speed="13.89" length="7.15" shape="-40.10,14.80 -47.25,14.80"/>
        <lane id=":J10_1_1" index="1" disallow="pedestrian" speed="13.89" length="7.15" shape="-40.10,11.60 -47.25,11.60"/>
    </edge>
    <edge id=":J10_w0" function="walkingarea">
        <lane id=":J10_w0_0" index="0" allow="pedestrian" speed="2.78" length="4.17" width="2.00" shape="-47.25,19.60 -47.25,21.60 -44.22,23.14 -42.80,21.72 -43.52,21.07 -44.24,20.54 -44.98,20.13 -45.72,19.84 -46.48,19.66"/>
    </edge>
    <edge id=":J19_0" function="internal">
        <lane id=":J19_0_0" index="0" disallow="pedestrian" speed="13.89" length="7.15" shape="-14.80,-30.10 -14.80,-37.25"/>
        <lane id=":J19_0_1" index="1" disallow="pedestrian" speed="13.89" length="7.15" shape="-11.60,-30.10 -11.60,-37.25"/>
    </edge>
    <edge id=":J19_2" function="internal">
        <lane id=":J19_2_0" index="0" disallow="pedestrian" speed="8.41" length="6.31" shape="-20.59,-31.67 -19.46,-32.99 -18.65,-34.36 -18.16,-35.78 -18.00,-37.25"/>
    </edge>
    <edge id=":J19_w1" function="walkingarea">
        <lane id=":J19_w1_0" index="0" allow="pedestrian" speed="2.78" length="4.17" width="2.00" shape="-19.60,-37.25 -21.60,-37.25 -23.14,-34.22 -21.72,-32.80 -21.07,-33.52 -20.54,-34.24 -20.13,-34.98 -19.84,-35.72 -19.66,-36.48"/>
    </edge>
    <edge id=":J2_0" function="internal">
        <lane id=":J2_0_0" index="0" disallow="pedestrian" speed="8.41" length="6.31" shape="20.59,41.67 19.46,42.99 18.65,44.36 18.16,45.78 18.00,47.25"/>
    </edge>
    <edge id=":J2_1" function="internal">
        <lane id=":J2_1_0" index="0" disallow="pedestrian" speed="13.89" length="7.15" shape="14.80,40.10 14.80,47.25"/>
        <lane id=":J2_1_1" index="1" disallow="pedestrian" speed="13.89" length="7.15" shape="11.60,40.10 11.60,47.25"/>
    </edge>
    <edge id=":J2_w0" function="walkingarea">
        <lane id=":J2_w0_0" index="0" allow="pedestrian" speed="2.78" length="4.17" width="2.00" shape="19.60,47.25 21.60,47.25 23.14,44.22 21.72,42.80 21.07,43.52 20.54,44.24 20.13,44.98 19.84,45.72 19.66,46.48"/>
    </edge>
    <edge id=":J36_w0" function="walkingarea">
        <lane id=":J36_w0_0" index="0" allow="pedestrian" speed="2.78" length="2.00" width="4.00" shape="50.00,-40.00 51.41,-38.59 48.59,-41.41 50.00,-40.00"/>
    </edge>
    <edge id=":J38_w0" function="walkingarea">
        <lane id=":J38_w0_0" index="0" allow="pedestrian" speed="2.78" length="2.00" width="4.00" shape="50.00,50.00 48.59,51.41 51.41,48.59 50.00,50.00"/>
    </edge>
    <edge id=":J41_w0" function="walkingarea">
        <lane id=":J41_w0_0" index="0" allow="pedestrian" speed="2.78" length="2.00" width="4.00" shape="-50.00,50.00 -51.41,48.59 -48.59,51.41 -50.00,50.00"/>
    </edge>
    <edge id=":J42_w0" function="walkingarea">
        <lane id=":J42_w0_0" index="0" allow="pedestrian" speed="2.78" length="2.00" width="4.00" shape="-50.00,-40.00 -48.59,-41.41 -51.41,-38.59 -50.00,-40.00"/>
    </edge>
    <edge id=":N2_in_0" function="internal">
        <lane id=":N2_in_0_0" index="0" disallow="pedestrian" speed="8.41" length="6.31" shape="-18.00,47.25 -18.16,45.78 -18.65,44.36 -19.46,42.99 -20.59,41.67"/>
    </edge>
    <edge id=":N2_in_1" function="internal">
        <lane id=":N2_in_1_0" index="0" disallow="pedestrian" speed="13.89" length="7.15" shape="-14.80,47.25 -14.80,40.10"/>
        <lane id=":N2_in_1_1" index="1" disallow="pedestrian" speed="13.89" length="7.15" shape="-11.60,47.25 -11.60,40.10"/>
    </edge>
    <edge id=":N2_in_w0" function="walkingarea">
        <lane id=":N2_in_w0_0" index="0" allow="pedestrian" speed="2.78" length="4.17" width="2.00" shape="-21.72,42.80 -23.14,44.22 -21.60,47.25 -19.60,47.25 -19.66,46.48 -19.84,45.72 -20.13,44.98 -20.54,44.24 -21.07,43.52"/>
    </edge>
    <edge id=":S2_in_0" function="internal">
        <lane id=":S2_in_0_0" index="0" disallow="pedestrian" speed="8.41" length="6.31" shape="18.00,-37.25 18.16,-35.78 18.65,-34.36 19.46,-32.99 20.59,-31.67"/>
    </edge>
    <edge id=":S2_in_1" function="internal">
        <lane id=":S2_in_1_0" index="0" disallow="pedestrian" speed="13.89" length="7.15" shape="14.80,-37.25 14.80,-30.10"/>
        <lane id=":S2_in_1_1" index="1" disallow="pedestrian" speed="13.89" length="7.15" shape="11.60,-37.25 11.60,-30.10"/>
    </edge>
    <edge id=":S2_in_w1" function="walkingarea">
        <lane id=":S2_in_w1_0" index="0" allow="pedestrian" speed="2.78" length="4.17" width="2.00" shape="21.72,-32.80 23.14,-34.22 21.60,-37.25 19.60,-37.25 19.66,-36.48 19.84,-35.72 20.13,-34.98 20.54,-34.24 21.07,-33.52"/>
    </edge>
    <edge id=":W2_in_0" function="internal">
        <lane id=":W2_in_0_0" index="0" disallow="pedestrian" speed="8.41" length="6.31" shape="-47.25,-8.00 -45.78,-8.16 -44.36,-8.65 -42.99,-9.46 -41.67,-10.59"/>
    </edge>
    <edge id=":W2_in_1" function="internal">
        <lane id=":W2_in_1_0" index="0" disallow="pedestrian" speed="13.89" length="7.15" shape="-47.25,-4.80 -40.10,-4.80"/>
        <lane id=":W2_in_1_1" index="1" disallow="pedestrian" speed="13.89" length="7.15" shape="-47.25,-1.60 -40.10,-1.60"/>
    </edge>
    <edge id=":W2_in_w1" function="walkingarea">
        <lane id=":W2_in_w1_0" index="0" allow="pedestrian" speed="2.78" length="4.17" width="2.00" shape="-42.80,-11.72 -44.22,-13.14 -47.25,-11.60 -47.25,-9.60 -46.48,-9.66 -45.72,-9.84 -44.98,-10.13 -44.24,-10.54 -43.52,-11.07"/>
    </edge>

    <edge id="E14" from="I" to="J2" priority="-1" shape="10.00,30.00 10.00,50.00">
        <lane id="E14_0" index="0" allow="pedestrian" speed="13.89" length="10.10" width="2.00" shape="17.40,30.00 17.40,40.10"/>
        <lane id="E14_1" index="1" disallow="pedestrian" speed="13.89" length="10.10" shape="14.80,30.00 14.80,40.10"/>
        <lane id="E14_2" index="2" disallow="pedestrian" speed="13.89" length="10.10" shape="11.60,30.00 11.60,40.10"/>
    </edge>
    <edge id="E1_in" from="J8" to="E2_in" priority="-1">
        <lane id="E1_in_0" index="0" allow="pedestrian" speed="13.89" length="82.75" width="2.00" shape="130.00,20.60 47.25,20.60"/>
        <lane id="E1_in_1" index="1" disallow="pedestrian" speed="13.89" length="82.75" shape="130.00,18.00 47.25,18.00"/>
        <lane id="E1_in_2" index="2" disallow="pedestrian" speed="13.89" length="82.75" shape="130.00,14.80 47.25,14.80"/>
        <lane id="E1_in_3" index="3" disallow="pedestrian" speed="13.89" length="82.75" shape="130.00,11.60 47.25,11.60"/>
    </edge>
    <edge id="E1_out" from="E2_out" to="J7" priority="-1">
        <lane id="E1_out_0" index="0" allow="pedestrian" speed="13.89" length="82.75" width="2.00" shape="47.25,-10.60 130.00,-10.60"/>
        <lane id="E1_out_1" index="1" disallow="pedestrian" speed="13.89" length="82.75" shape="47.25,-8.00 130.00,-8.00"/>
        <lane id="E1_out_2" index="2" disallow="pedestrian" speed="13.89" length="82.75" shape="47.25,-4.80 130.00,-4.80"/>
        <lane id="E1_out_3" index="3" disallow="pedestrian" speed="13.89" length="82.75" shape="47.25,-1.60 130.00,-1.60"/>
    </edge>
    <edge id="E21" from="I" to="J19" priority="-1" shape="-10.00,-20.00 -10.00,-40.00">
        <lane id="E21_0" index="0" allow="pedestrian" speed="13.89" length="10.10" width="2.00" shape="-17.40,-20.00 -17.40,-30.10"/>
        <lane id="E21_1" index="1" disallow="pedestrian" speed="13.89" length="10.10" shape="-14.80,-20.00 -14.80,-30.10"/>
        <lane id="E21_2" index="2" disallow="pedestrian" speed="13.89" length="10.10" shape="-11.60,-20.00 -11.60,-30.10"/>
    </edge>
    <edge id="E22" from="I" to="J10" priority="-1" shape="-30.00,10.00 -50.00,10.00">
        <lane id="E22_0" index="0" allow="pedestrian" speed="13.89" length="10.10" width="2.00" shape="-30.00,17.40 -40.10,17.40"/>
        <lane id="E22_1" index="1" disallow="pedestrian" speed="13.89" length="10.10" shape="-30.00,14.80 -40.10,14.80"/>
        <lane id="E22_2" index="2" disallow="pedestrian" speed="13.89" length="10.10" shape="-30.00,11.60 -40.10,11.60"/>
    </edge>
    <edge id="E3_in" from="E2_in" to="I" priority="-1" shape="50.00,10.00 30.00,10.00">
        <lane id="E3_in_0" index="0" allow="pedestrian" speed="13.89" length="10.10" width="2.00" shape="40.10,17.40 30.00,17.40"/>
        <lane id="E3_in_1" index="1" disallow="pedestrian" speed="13.89" length="10.10" shape="40.10,14.80 30.00,14.80"/>
        <lane id="E3_in_2" index="2" disallow="pedestrian" speed="13.89" length="10.10" shape="40.10,11.60 30.00,11.60"/>
    </edge>
    <edge id="E3_out" from="I" to="E2_out" priority="-1" shape="30.00,0.00 50.00,0.00">
        <lane id="E3_out_0" index="0" allow="pedestrian" speed="13.89" length="10.10" width="2.00" shape="30.00,-7.40 40.10,-7.40"/>
        <lane id="E3_out_1" index="1" disallow="pedestrian" speed="13.89" length="10.10" shape="30.00,-4.80 40.10,-4.80"/>
        <lane id="E3_out_2" index="2" disallow="pedestrian" speed="13.89" length="10.10" shape="30.00,-1.60 40.10,-1.60"/>
    </edge>
    <edge id="N1_in" from="J28" to="N2_in" priority="-1">
        <lane id="N1_in_0" index="0" allow="pedestrian" speed="13.89" length="82.75" width="2.00" shape="-20.60,130.00 -20.60,47.25"/>
        <lane id="N1_in_1" index="1" disallow="pedestrian" speed="13.89" length="82.75" shape="-18.00,130.00 -18.00,47.25"/>
        <lane id="N1_in_2" index="2" disallow="pedestrian" speed="13.89" length="82.75" shape="-14.80,130.00 -14.80,47.25"/>
        <lane id="N1_in_3" index="3" disallow="pedestrian" speed="13.89" length="82.75" shape="-11.60,130.00 -11.60,47.25"/>
    </edge>
    <edge id="N1_out" from="J2" to="J3" priority="-1">