<?xml version="1.0" encoding="UTF-8"?>
<routes>

    <!-- ================================================================
         Vehicle types — urban intersection (50 km/h zone)
         ================================================================ -->
    <vType id="car"
           vClass="passenger"
           length="4.5"
           accel="2.6"
           decel="4.5"
           maxSpeed="13.89"
           minGap="2.5"
           sigma="0.5"
           speedFactor="1.0"
           speedDev="0.1"
           color="0.2,0.6,1.0"/>

    <vType id="truck"
           vClass="truck"
           length="10.0"
           accel="1.0"
           decel="3.0"
           maxSpeed="11.11"
           minGap="3.5"
           sigma="0.5"
           speedFactor="0.9"
           speedDev="0.05"
           color="0.8,0.4,0.1"/>

    <!-- Buses -->
    <vType id="BUS_SOR_NB12" vClass="bus" length="12.18" width="2.55" accel="1.067" decel="3.0" maxSpeed="11.11" minGap="3.0" sigma="0.5" speedFactor="0.95" speedDev="0.05" color="0.9,0.8,0.0"/>
    <vType id="BUS_SOR_NB18" vClass="bus" length="18.75" width="2.55" accel="1.100" decel="3.0" maxSpeed="11.11" minGap="3.0" sigma="0.5" speedFactor="0.95" speedDev="0.05" color="0.9,0.8,0.0"/>
    <vType id="BUS_SOR_NB95" vClass="bus" length="9.60" width="2.53" accel="1.067" decel="3.0" maxSpeed="11.11" minGap="3.0" sigma="0.5" speedFactor="0.95" speedDev="0.05" color="0.9,0.8,0.0"/>
    <vType id="BUS_SOL_U15" vClass="bus" length="14.89" width="2.55" accel="1.067" decel="3.0" maxSpeed="11.11" minGap="3.0" sigma="0.5" speedFactor="0.95" speedDev="0.05" color="0.9,0.8,0.0"/>
    <vType id="BUS_SOL_U12" vClass="bus" length="12.00" width="2.55" accel="1.067" decel="3.0" maxSpeed="11.11" minGap="3.0" sigma="0.5" speedFactor="0.95" speedDev="0.05" color="0.9,0.8,0.0"/>

    <!-- Trams -->
    <vType id="TRAM_VARIO" vClass="tram" length="22.60" width="2.48" accel="0.677" decel="2.0" maxSpeed="13.89" minGap="4.0" sigma="0.5" speedFactor="1.0" speedDev="0.0" color="1.0,0.2,0.2"/>

    <!-- Traffic -->
    <trip id="veh_0" type="car" depart="0.0" from="S1_in" to="E1_out" departLane="best" departSpeed="max"/>
    <trip id="veh_1" type="truck" depart="0.0" from="E1_in" to="N1_out" departLane="best" departSpeed="max"/>
    <trip id="veh_2" type="car" depart="0.0" from="N1_in" to="E1_out" departLane="best" departSpeed="max"/>
    <person id="ped_0" depart="0.0">
        <walk from="PNWI_in" to="PSWI_out"/>
    </person>
    <trip id="veh_3" type="BUS_SOR_NB95" depart="4.0" from="S1_in" to="W1_out" departLane="best" departSpeed="max"/>
    <trip id="veh_4" type="car" depart="4.0" from="N1_in" to="W1_out" departLane="best" departSpeed="max"/>
    <trip id="veh_5" type="car" depart="4.0" from="E1_in" to="S1_out" departLane="best" departSpeed="max"/>
    <trip id="veh_6" type="car" depart="8.0" from="S1_in" to="W1_out" departLane="best" departSpeed="max"/>
    <trip id="veh_7" type="car" depart="8.0" from="S1_in" to="N1_out" departLane="best" departSpeed="max"/>
    <trip id="veh_8" type="car" depart="12.0" from="E1_in" to="S1_out" departLane="best" departSpeed="max"/>
    <trip id="veh_9" type="car" depart="12.0" from="N1_in" to="S1_out" departLane="best" departSpeed="max"/>
    <person id="ped_1" depart="15.0">
        <walk from="PSW_in" to="PSWI_in"/>
    </person>
    <trip id="veh_10" type="BUS_SOR_NB12" depart="16.0" from="W1_in" to="S1_out" departLane="best" departSpeed="max"/>
    <trip id="veh_11" type="BUS_SOL_U15" depart="16.0" from="W1_in" to="N1_out" departLane="best" departSpeed="max"/>
    <trip id="veh_12" type="car" depart="20.0" from="N1_in" to="W1_out" departLane="best" departSpeed="max"/>
    <trip id="veh_13" type="car" depart="20.0" from="S1_in" to="W1_out" departLane="best" departSpeed="max"/>
    <trip id="veh_14" type="BUS_SOL_U15" depart="20.0" from="E1_in" to="W1_out" departLane="best" departSpeed="max"/>
    <trip id="veh_15" type="car" depart="24.0" from="S1_in" to="W1_out" departLane="best" departSpeed="max"/>
    <trip id="veh_16" type="car" depart="24.0" from="N1_in" to="W1_out" departLane="best" departSpeed="max"/>
    <trip id="veh_17" type="car" depart="28.0" from="S1_in" to="N1_out" departLane="best" departSpeed="max"/>
    <trip id="veh_18" type="car" depart="28.0" from="S1_in" to="N1_out" departLane="best" departSpeed="max"/>
    <trip id="veh_19" type="car" depart="28.0" from="N1_in" to="E1_out" departLane="best" departSpeed="max"/>
    <person id="ped_2" depart="30.0">
        <walk from="PSEI_in" to="PNEI_out"/>
    </person>
    <trip id="veh_20" type="BUS_SOR_NB95" depart="32.0" from="E1_in" to="W1_out" departLane="best" departSpeed="max"/>
    <trip id="veh_21" type="car" depart="32.0" from="S1_in" to="W1_out" departLane="best" departSpeed="max"/>
    <trip id="veh_22" type="car" depart="36.0" from="E1_in" to="N1_out" departLane="best" departSpeed="max"/>
    <trip id="veh_23" type="car" depart="36.0" from="E1_in" to="N1_out" departLane="best" departSpeed="max"/>
    <trip id="veh_24" type="BUS_SOL_U15" depart="36.0" from="W1_in" to="E1_out" departLane="best" departSpeed="max"/>
    <trip id="veh_25" type="car" depart="40.0" from="W1_in" to="E1_out" departLane="best" departSpeed="max"/>
    <trip id="veh_26" type="car" depart="40.0" from="N1_in" to="S1_out" departLane="best" departSpeed="max"/>
    <trip id="veh_27" type="car" depart="44.0" from="E1_in" to="S1_out" departLane="best" departSpeed="max"/>
    <trip id="veh_28" type="car" depart="44.0" from="W1_in" to="S1_out" departLane="best" departSpeed="max"/>
    <trip id="veh_29" type="car" depart="44.0" from="S1_in" to="W1_out" departLane="best" departSpeed="max"/>
    <person id="ped_3" depart="45.0">
        <walk from="PSE_in" to="PSEI_in"/>
    </person>
    <trip id="veh_30" type="car" depart="48.0" from="W1_in" to="S1_out" departLane="best" departSpeed="max"/>
    <trip id="veh_31" type="BUS_SOR_NB95" depart="48.0" from="W1_in" to="E1_out" departLane="best" departSpeed="max"/>
    <trip id="veh_32" type="BUS_SOL_U12" depart="52.0" from="N1_in" to="W1_out" departLane="best" departSpeed="max"/>
    <trip id="veh_33" type="car" depart="52.0" from="W1_in" to="E1_out" departLane="best" departSpeed="max"/>
    <trip id="veh_34" type="car" depart="56.0" from="E1_in" to="S1_out" departLane="best" departSpeed="max"/>
    <trip id="veh_35" type="car" depart="56.0" from="S1_in" to="W1_out" departLane="best" departSpeed="max"/>
    <trip id="veh_36" type="car" depart="60.0" from="N1_in" to="S1_out" departLane="best" departSpeed="max"/>
    <trip id="veh_37" type="car" depart="60.0" from="E1_in" to="S1_out" departLane="best" departSpeed="max"/>
    <trip id="veh_38" type="car" depart="60.0" from="W1_in" to="S1_out" departLane="best" departSpeed="max"/>
    <person id="ped_4" depart="60.0">
        <walk from="PNEI_in" to="PNWI_out"/>
    </person>
    <trip id="veh_39" type="car" depart="64.0" from="S1_in" to="W1_out" departLane="best" departSpeed="max"/>
    <trip id="veh_40" type="car" depart="64.0" from="W1_in" to="N1_out" departLane="best" departSpeed="max"/>
    <trip id="veh_41" type="car" depart="64.0" from="N1_in" to="S1_out" departLane="best" departSpeed="max"/>
    <trip id="veh_42" type="car" depart="68.0" from="S1_in" to="N1_out" departLane="best" departSpeed="max"/>
    <trip id="veh_43" type="car" depart="68.0" from="N1_in" to="E1_out" departLane="best" departSpeed="max"/>
    <trip id="veh_44" type="car" depart="68.0" from="S1_in" to="N1_out" departLane="best" departSpeed="max"/>
    <trip id="veh_45" type="car" depart="72.0" from="S1_in" to="N1_out" departLane="best" departSpeed="max"/>
    <trip id="veh_46" type="car" depart="72.0" from="S1_in" to="W1_out" departLane="best" departSpeed="max"/>
    <person id="ped_5" depart="75.0">
        <walk from="PNWI_in" to="PSWI_out"/>
    </person>
    <trip id="veh_47" type="BUS_SOL_U15" depart="76.0" from="N1_in" to="W1_out" departLane="best" departSpeed="max"/>
    <trip id="veh_48" type="car" depart="76.0" from="W1_in" to="S1_out" departLane="best" departSpeed="max"/>
    <trip id="veh_49" type="car" depart="76.0" from="W1_in" to="S1_out" departLane="best" departSpeed="max"/>
    <trip id="veh_50" type="car" depart="80.0" from="E1_in" to="W1_out" departLane="best" departSpeed="max"/>
    <trip id="veh_51" type="car" depart="80.0" from="S1_in" to="N1_out" departLane="best" departSpeed="max"/>
    <trip id="veh_52" type="car" depart="84.0" from="S1_in" to="W1_out" departLane="best" departSpeed="max"/>
    <trip id="veh_53" type="BUS_SOL_U15" depart="84.0" from="S1_in" to="W1_out" departLane="best" departSpeed="max"/>
    <trip id="veh_54" type="car" depart="84.0" from="E1_in" to="W1_out" departLane="best" departSpeed="max"/>
    <trip id="veh_55" type="car" depart="88.0" from="S1_in" to="E1_out" departLane="best" departSpeed="max"/>
    <trip id="veh_56" type="car" depart="88.0" from="E1_in" to="S1_out" departLane="best" departSpeed="max"/>
    <trip id="veh_57" type="car" depart="88.0" from="S1_in" to="W1_out" departLane="best" departSpeed="max"/>
    <person id="ped_6" depart="90.0">
        <walk from="PSEI_in" to="PNEI_out"/>
    </person>
    <trip id="veh_58" type="car" depart="92.0" from="E1_in" to="S1_out" departLane="best" departSpeed="max"/>
    <trip id="veh_59" type="car" depart="92.0" from="N1_in" to="E1_out" departLane="best" departSpeed="max"/>
    <trip id="veh_60" type="car" depart="96.0" from="E1_in" to="S1_out" departLane="best" departSpeed="max"/>
    <trip id="veh_61" type="car" depart="96.0" from="N1_in" to="W1_out" departLane="best" departSpeed="max"/>
    <trip id="veh_62" type="car" depart="96.0" from="E1_in" to="W1_out" departLane="best" departSpeed="max"/>
    <trip id="veh_63" type="BUS_SOR_NB12" depart="100.0" from="S1_in" to="E1_out" departLane="best" departSpeed="max"/>
    <trip id="veh_64" type="car" depart="100.0" from="S1_in" to="N1_out" departLane="best" departSpeed="max"/>
    <trip id="veh_65" type="car" depart="100.0" from="W1_in" to="S1_out" departLane="best" departSpeed="max"/>
    <trip id="veh_66" type="car" depart="104.0" from="N1_in" to="E1_out" departLane="best" departSpeed="max"/>
    <trip id="veh_67" type="car" depart="104.0" from="N1_in" to="E1_out" departLane="best" departSpeed="max"/>
    <trip id="veh_68" type="car" depart="104.0" from="S1_in" to="E1_out" departLane="best" departSpeed="max"/>
    <person id="ped_7" depart="105.0">
        <walk from="PNW_in" to="PNWI_in"/>
    </person>
    <trip id="veh_69" type="car" depart="108.0" from="S1_in" to="N1_out" departLane="best" departSpeed="max"/>
    <trip id="veh_70" type="car" depart="108.0" from="W1_in" to="E1_out" departLane="best" departSpeed="max"/>
    <trip id="veh_71" type="car" depart="108.0" from="E1_in" to="N1_out" departLane="best" departSpeed="max"/>
    <trip id="veh_72" type="car" depart="112.0" from="N1_in" to="S1_out" departLane="best" departSpeed="max"/>
    <trip id="veh_73" type="car" depart="112.0" from="N1_in" to="W1_out" departLane="best" departSpeed="max"/>
    <trip id="veh_74" type="car" depart="112.0" from="S1_in" to="E1_out" departLane="best" departSpeed="max"/>
    <trip id="veh_75" type="car" depart="116.0" from="S1_in" to="N1_out" departLane="best" departSpeed="max"/>
    <trip id="veh_76" type="BUS_SOL_U12" depart="116.0" from="N1_in" to="E1_out" departLane="best" departSpeed="max"/>
    <trip id="veh_77" type="car" depart="116.0" from="E1_in" to="S1_out" departLane="best" departSpeed="max"/>
    <trip id="veh_78" type="car" depart="120.0" from="W1_in" to="N1_out" departLane="best" departSpeed="max"/>
    <trip id="veh_79" type="car" depart="120.0" from="S1_in" to="N1_out" departLane="best" departSpeed="max"/>
    <trip id="veh_80" type="car" depart="120.0" from="E1_in" to="N1_out" departLane="best" departSpeed="max"/>
    <person id="ped_8" depart="120.0">
        <walk from="PNWI_in" to="PSWI_out"/>
    </person>
    <trip id="veh_81" type="car" depart="120.0" from="W1_in" to="S1_out" departLane="best" departSpeed="max"/>
    <trip id="veh_82" type="car" depart="121.2" from="W1_in" to="S1_out" departLane="best" departSpeed="max"/>
    <trip id="veh_83" type="car" depart="122.4" from="W1_in" to="S1_out" departLane="best" departSpeed="max"/>
    <trip id="veh_84" type="car" depart="123.6" from="W1_in" to="S1_out" departLane="best" departSpeed="max"/>
    <trip id="veh_85" type="BUS_SOL_U12" depart="124.0" from="W1_in" to="N1_out" departLane="best" departSpeed="max"/>
    <trip id="veh_86" type="BUS_SOR_NB18" depart="124.0" from="S1_in" to="N1_out" departLane="best" departSpeed="max"/>
    <trip id="veh_87" type="car" depart="124.8" from="W1_in" to="S1_out" departLane="best" departSpeed="max"/>
    <trip id="veh_88" type="car" depart="126.0" from="W1_in" to="S1_out" departLane="best" departSpeed="max"/>
    <trip id="veh_89" type="BUS_SOL_U12" depart="127.2" from="W1_in" to="S1_out" departLane="best" departSpeed="max"/>
    <trip id="veh_90" type="car" depart="128.0" from="E1_in" to="W1_out" departLane="best" departSpeed="max"/>
    <trip id="veh_91" type="car" depart="128.0" from="E1_in" to="W1_out" departLane="best" departSpeed="max"/>
    <trip id="veh_92" type="truck" depart="128.4" from="W1_in" to="S1_out" departLane="best" departSpeed="max"/>
    <trip id="veh_93" type="car" depart="129.6" from="W1_in" to="S1_out" departLane="best" departSpeed="max"/>
    <trip id="veh_94" type="car" depart="130.8" from="W1_in" to="S1_out" departLane="best" departSpeed="max"/>
    <trip id="veh_95" type="car" depart="132.0" from="N1_in" to="W1_out" departLane="best" departSpeed="max"/>
    <trip id="veh_96" type="car" depart="132.0" from="E1_in" to="N1_out" departLane="best" departSpeed="max"/>
    <trip id="veh_97" type="car" depart="132.0" from="W1_in" to="S1_out" departLane="best" departSpeed="max"/>
    <person id="ped_9" depart="135.0">
        <walk from="PNWI_in" to="PSWI_out"/>
    </person>
    <trip id="veh_98" type="car" depart="136.0" from="N1_in" to="W1_out" departLane="best" departSpeed="max"/>
    <trip id="veh_99" type="car" depart="136.0" from="S1_in" to="W1_out" departLane="best" departSpeed="max"/>
    <trip id="veh_100" type="car" depart="140.0" from="E1_in" to="S1_out" departLane="best" departSpeed="max"/>
    <trip id="veh_101" type="car" depart="140.0" from="W1_in" to="S1_out" departLane="best" departSpeed="max"/>
    <trip id="veh_102" type="car" depart="144.0" from="N1_in" to="S1_out" departLane="best" departSpeed="max"/>
    <trip id="veh_103" type="car" depart="144.0" from="S1_in" to="W1_out" departLane="best" departSpeed="max"/>
    <trip id="veh_104" type="car" depart="144.0" from="W1_in" to="E1_out" departLane="best" departSpeed="max"/>
    <trip id="veh_105" type="car" depart="148.0" from="N1_in" to="W1_out" departLane="best" departSpeed="max"/>
    <trip id="veh_106" type="car" depart="148.0" from="S1_in" to="E1_out" departLane="best" departSpeed="max"/>
    <trip id="veh_107" type="truck" depart="148.0" from="S1_in" to="W1_out" departLane="best" departSpeed="max"/>
    <person id="ped_10" depart="150.0">
        <walk from="PSE_in" to="PSEI_in"/>
    </person>
    <trip id="veh_108" type="TRAM_VARIO" depart="152.0" from="NT_in" to="ST_out" departLane="best" departSpeed="max"/>
    <trip id="veh_109" type="car" depart="152.0" from="N1_in" to="E1_out" departLane="best" departSpeed="max"/>
    <trip id="veh_110" type="car" depart="156.0" from="W1_in" to="N1_out" departLane="best" departSpeed="max"/>
    <trip id="veh_111" type="car" depart="156.0" from="S1_in" to="W1_out" departLane="best" departSpeed="max"/>
    <trip id="veh_112" type="car" depart="160.0" from="E1_in" to="S1_out" departLane="best" departSpeed="max"/>
    <trip id="veh_113" type="car" depart="160.0" from="S1_in" to="N1_out" departLane="best" departSpeed="max"/>
    <trip id="veh_114" type="car" depart="160.0" from="S1_in" to="E1_out" departLane="best" departSpeed="max"/>
    <trip id="veh_115" type="car" depart="164.0" from="W1_in" to="N1_out" departLane="best" departSpeed="max"/>
    <trip id="veh_116" type="car" depart="164.0" from="E1_in" to="S1_out" departLane="best" departSpeed="max"/>
    <person id="ped_11" depart="165.0">
        <walk from="PNE_in" to="PNEI_in"/>
    </person>
    <trip id="veh_117" type="car" depart="168.0" from="W1_in" to="E1_out" departLane="best" departSpeed="max"/>
    <trip id="veh_118" type="car" depart="168.0" from="S1_in" to="W1_out" departLane="best" departSpeed="max"/>
    <trip id="veh_119" type="car" depart="168.0" from="N1_in" to="S1_out" departLane="best" departSpeed="max"/>
    <trip id="veh_120" type="car" depart="172.0" from="E1_in" to="W1_out" departLane="best" departSpeed="max"/>
    <trip id="veh_121" type="car" depart="172.0" from="E1_in" to="S1_out" departLane="best" departSpeed="max"/>
    <trip id="veh_122" type="BUS_SOL_U12" depart="172.0" from="W1_in" to="E1_out" departLane="best" departSpeed="max"/>
    <trip id="veh_123" type="car" depart="176.0" from="W1_in" to="S1_out" departLane="best" departSpeed="max"/>
    <trip id="veh_124" type="car" depart="176.0" from="E1_in" to="N1_out" departLane="best" departSpeed="max"/>
    <trip id="veh_125" type="car" depart="180.0" from="W1_in" to="E1_out" departLane="best" departSpeed="max"/>
    <trip id="veh_126" type="car" depart="180.0" from="E1_in" to="S1_out" departLane="best" departSpeed="max"/>
    <person id="ped_12" depart="180.0">
        <walk from="PSE_in" to="PSEI_in"/>
    </person>
    <trip id="veh_127" type="car" depart="184.0" from="E1_in" to="S1_out" departLane="best" departSpeed="max"/>
    <trip id="veh_128" type="car" depart="184.0" from="N1_in" to="S1_out" departLane="best" departSpeed="max"/>
    <trip id="veh_129" type="car" depart="188.0" from="W1_in" to="N1_out" departLane="best" departSpeed="max"/>
    <trip id="veh_130" type="BUS_SOR_NB95" depart="188.0" from="W1_in" to="E1_out" departLane="best" departSpeed="max"/>
    <trip id="veh_131" type="BUS_SOL_U12" depart="192.0" from="N1_in" to="W1_out" departLane="best" departSpeed="max"/>
    <trip id="veh_132" type="car" depart="192.0" from="W1_in" to="S1_out" departLane="best" departSpeed="max"/>
    <trip id="veh_133" type="car" depart="192.0" from="N1_in" to="W1_out" departLane="best" departSpeed="max"/>
    <person id="ped_13" depart="195.0">
        <walk from="PNW_in" to="PNWI_in"/>
    </person>
    <trip id="veh_134" type="car" depart="196.0" from="E1_in" to="N1_out" departLane="best" departSpeed="max"/>
    <trip id="veh_135" type="car" depart="196.0" from="E1_in" to="W1_out" departLane="best" departSpeed="max"/>
    <trip id="veh_136" type="car" depart="200.0" from="S1_in" to="E1_out" departLane="best" departSpeed="max"/>
    <trip id="veh_137" type="BUS_SOL_U12" depart="200.0" from="N1_in" to="W1_out" departLane="best" departSpeed="max"/>
    <trip id="veh_138" type="car" depart="204.0" from="S1_in" to="E1_out" departLane="best" departSpeed="max"/>
    <trip id="veh_139" type="car" depart="204.0" from="W1_in" to="S1_out" departLane="best" departSpeed="max"/>
    <trip id="veh_140" type="car" depart="208.0" from="N1_in" to="E1_out" departLane="best" departSpeed="max"/>
    <trip id="veh_141" type="car" depart="208.0" from="S1_in" to="E1_out" departLane="best" departSpeed="max"/>
    <person id="ped_14" depart="210.0">
        <walk from="PNWI_in" to="PSWI_out"/>
    </person>
    <trip id="veh_142" type="car" depart="212.0" from="E1_in" to="N1_out" departLane="best" departSpeed="max"/>
    <trip id="veh_143" type="car" depart="212.0" from="W1_in" to="E1_out" departLane="best" departSpeed="max"/>
    <trip id="veh_144" type="car" depart="216.0" from="W1_in" to="S1_out" departLane="best" departSpeed="max"/>
    <trip id="veh_145" type="car" depart="216.0" from="E1_in" to="N1_out" departLane="best" departSpeed="max"/>
    <trip id="veh_146" type="car" depart="216.0" from="N1_in" to="W1_out" departLane="best" departSpeed="max"/>
    <trip id="veh_147" type="BUS_SOR_NB95" depart="220.0" from="E1_in" to="W1_out" departLane="best" departSpeed="max"/>
    <trip id="veh_148" type="car" depart="220.0" from="E1_in" to="W1_out" departLane="best" departSpeed="max"/>
    <trip id="veh_149" type="car" depart="224.0" from="N1_in" to="E1_out" departLane="best" departSpeed="max"/>
    <trip id="veh_150" type="truck" depart="224.0" from="N1_in" to="W1_out" departLane="best" departSpeed="max"/>
    <person id="ped_15" depart="225.0">
        <walk from="PNW_in" to="PNWI_in"/>
    </person>
    <trip id="veh_151" type="car" depart="228.0" from="N1_in" to="E1_out" departLane="best" departSpeed="max"/>
    <trip id="veh_152" type="car" depart="228.0" from="N1_in" to="S1_out" departLane="best" departSpeed="max"/>
    <trip id="veh_153" type="car" depart="228.0" from="E1_in" to="W1_out" departLane="best" departSpeed="max"/>
    <trip id="veh_154" type="truck" depart="232.0" from="N1_in" to="S1_out" departLane="best" departSpeed="max"/>
    <trip id="veh_155" type="car" depart="232.0" from="E1_in" to="N1_out" departLane="best" departSpeed="max"/>
    <trip id="veh_156" type="car" depart="236.0" from="E1_in" to="S1_out" departLane="best" departSpeed="max"/>
    <trip id="veh_157" type="BUS_SOR_NB95" depart="236.0" from="E1_in" to="S1_out" departLane="best" departSpeed="max"/>
    <trip id="veh_158" type="car" depart="240.0" from="W1_in" to="N1_out" departLane="best" departSpeed="max"/>
    <trip id="veh_159" type="car" depart="240.0" from="S1_in" to="N1_out" departLane="best" departSpeed="max"/>
    <trip id="veh_160" type="car" depart="240.0" from="E1_in" to="W1_out" departLane="best" departSpeed="max"/>
    <person id="ped_16" depart="240.0">
        <walk from="PSEI_in" to="PNEI_out"/>
    </person>
    <trip id="veh_161" type="car" depart="240.0" from="E1_in" to="N1_out" departLane="best" departSpeed="max"/>
    <trip id="veh_162" type="car" depart="241.2" from="E1_in" to="N1_out" departLane="best" departSpeed="max"/>
    <trip id="veh_163" type="car" depart="242.4" from="E1_in" to="N1_out" departLane="best" departSpeed="max"/>
    <trip id="veh_164" type="car" depart="243.6" from="E1_in" to="N1_out" departLane="best" departSpeed="max"/>
    <trip id="veh_165" type="car" depart="244.0" from="E1_in" to="N1_out" departLane="best" departSpeed="max"/>
    <trip id="veh_166" type="car" depart="244.0" from="W1_in" to="E1_out" departLane="best" departSpeed="max"/>
    <trip id="veh_167" type="car" depart="244.8" from="E1_in" to="N1_out" departLane="best" departSpeed="max"/>
    <trip id="veh_168" type="car" depart="246.0" from="E1_in" to="N1_out" departLane="best" departSpeed="max"/>
    <trip id="veh_169" type="car" depart="247.2" from="E1_in" to="N1_out" departLane="best" departSpeed="max"/>
    <trip id="veh_170" type="car" depart="248.0" from="E1_in" to="S1_out" departLane="best" departSpeed="max"/>
    <trip id="veh_171" type="truck" depart="248.0" from="N1_in" to="E1_out" departLane="best" departSpeed="max"/>
    <trip id="veh_172" type="car" depart="248.4" from="E1_in" to="N1_out" departLane="best" departSpeed="max"/>
    <trip id="veh_173" type="car" depart="249.6" from="E1_in" to="N1_out" departLane="best" departSpeed="max"/>
    <trip id="veh_174" type="car" depart="250.8" from="E1_in" to="N1_out" departLane="best" departSpeed="max"/>
    <trip id="veh_175" type="car" depart="252.0" from="N1_in" to="W1_out" departLane="best" departSpeed="max"/>
    <trip id="veh_176" type="car" depart="252.0" from="N1_in" to="W1_out" departLane="best" departSpeed="max"/>
    <person id="ped_17" depart="255.0">
        <walk from="PSE_in" to="PSEI_in"/>
    </person>
    <trip id="veh_177" type="car" depart="256.0" from="W1_in" to="E1_out" departLane="best" departSpeed="max"/>
    <trip id="veh_178" type="car" depart="256.0" from="W1_in" to="E1_out" departLane="best" departSpeed="max"/>
    <trip id="veh_179" type="car" depart="260.0" from="E1_in" to="S1_out" departLane="best" departSpeed="max"/>
    <trip id="veh_180" type="car" depart="260.0" from="E1_in" to="W1_out" departLane="best" departSpeed="max"/>
    <trip id="veh_181" type="car" depart="260.0" from="W1_in" to="N1_out" departLane="best" departSpeed="max"/>
    <trip id="veh_182" type="car" depart="264.0" from="N1_in" to="S1_out" departLane="best" departSpeed="max"/>
    <trip id="veh_183" type="car" depart="264.0" from="W1_in" to="S1_out" departLane="best" departSpeed="max"/>
    <trip id="veh_184" type="TRAM_VARIO" depart="264.0" from="NT_in" to="ST_out" departLane="best" departSpeed="max"/>
    <trip id="veh_185" type="car" depart="268.0" from="E1_in" to="W1_out" departLane="best" departSpeed="max"/>
    <trip id="veh_186" type="car" depart="268.0" from="E1_in" to="N1_out" departLane="best" departSpeed="max"/>
    <person id="ped_18" depart="270.0">
        <walk from="PNEI_in" to="PNWI_out"/>
    </person>
    <trip id="veh_187" type="car" depart="272.0" from="S1_in" to="W1_out" departLane="best" departSpeed="max"/>
    <trip id="veh_188" type="car" depart="272.0" from="W1_in" to="E1_out" departLane="best" departSpeed="max"/>
    <trip id="veh_189" type="car" depart="276.0" from="E1_in" to="N1_out" departLane="best" departSpeed="max"/>
    <trip id="veh_190" type="car" depart="276.0" from="S1_in" to="E1_out" departLane="best" departSpeed="max"/>
    <trip id="veh_191" type="car" depart="280.0" from="E1_in" to="N1_out" departLane="best" departSpeed="max"/>
    <trip id="veh_192" type="car" depart="280.0" from="S1_in" to="N1_out" departLane="best" departSpeed="max"/>
    <trip id="veh_193" type="car" depart="284.0" from="S1_in" to="N1_out" departLane="best" departSpeed="max"/>
    <trip id="veh_194" type="car" depart="284.0" from="N1_in" to="S1_out" departLane="best" departSpeed="max"/>
    <trip id="veh_195" type="car" depart="284.0" from="W1_in" to="S1_out" departLane="best" departSpeed="max"/>
    <person id="ped_19" depart="285.0">
        <walk from="PNW_in" to="PNWI_in"/>
    </person>
    <trip id="veh_196" type="car" depart="288.0" from="W1_in" to="E1_out" departLane="best" departSpeed="max"/>
    <trip id="veh_197" type="car" depart="288.0" from="E1_in" to="W1_out" departLane="best" departSpeed="max"/>
    <trip id="veh_198" type="car" depart="292.0" from="E1_in" to="S1_out" departLane="best" departSpeed="max"/>
    <trip id="veh_199" type="BUS_SOR_NB18" depart="292.0" from="S1_in" to="W1_out" departLane="best" departSpeed="max"/>
    <trip id="veh_200" type="TRAM_VARIO" depart="296.0" from="ST_in" to="NT_out" departLane="best" departSpeed="max"/>
    <trip id="veh_201" type="car" depart="296.0" from="N1_in" to="E1_out" departLane="best" departSpeed="max"/>
    <trip id="veh_202" type="truck" depart="300.0" from="S1_in" to="N1_out" departLane="best" departSpeed="max"/>
    <trip id="veh_203" type="car" depart="300.0" from="N1_in" to="S1_out" departLane="best" departSpeed="max"/>
    <trip id="veh_204" type="car" depart="300.0" from="S1_in" to="N1_out" departLane="best" departSpeed="max"/>
    <person id="ped_20" depart="300.0">
        <walk from="PNEI_in" to="PNWI_out"/>
    </person>
    <trip id="veh_205" type="car" depart="304.0" from="S1_in" to="W1_out" departLane="best" departSpeed="max"/>
    <trip id="veh_206" type="car" depart="304.0" from="E1_in" to="S1_out" departLane="best" departSpeed="max"/>
    <trip id="veh_207" type="car" depart="304.0" from="E1_in" to="N1_out" departLane="best" departSpeed="max"/>
    <trip id="veh_208" type="car" depart="308.0" from="S1_in" to="N1_out" departLane="best" departSpeed="max"/>
    <trip id="veh_209" type="car" depart="308.0" from="N1_in" to="S1_out" departLane="best" departSpeed="max"/>
    <trip id="veh_210" type="car" depart="308.0" from="N1_in" to="E1_out" departLane="best" departSpeed="max"/>
    <trip id="veh_211" type="car" depart="312.0" from="N1_in" to="S1_out" departLane="best" departSpeed="max"/>
    <trip id="veh_212" type="car" depart="312.0" from="E1_in" to="W1_out" departLane="best" departSpeed="max"/>
    <person id="ped_21" depart="315.0">
        <walk from="PSE_in" to="PSEI_in"/>
    </person>
    <trip id="veh_213" type="car" depart="316.0" from="W1_in" to="N1_out" departLane="best" departSpeed="max"/>
    <trip id="veh_214" type="car" depart="316.0" from="S1_in" to="N1_out" departLane="best" departSpeed="max"/>
    <trip id="veh_215" type="car" depart="316.0" from="E1_in" to="S1_out" departLane="best" departSpeed="max"/>
    <trip id="veh_216" type="car" depart="320.0" from="N1_in" to="S1_out" departLane="best" departSpeed="max"/>
    <trip id="veh_217" type="BUS_SOR_NB12" depart="320.0" from="S1_in" to="W1_out" departLane="best" departSpeed="max"/>
    <trip id="veh_218" type="car" depart="324.0" from="N1_in" to="S1_out" departLane="best" departSpeed="max"/>
    <trip id="veh_219" type="car" depart="324.0" from="E1_in" to="S1_out" departLane="best" departSpeed="max"/>
    <trip id="veh_220" type="car" depart="324.0" from="S1_in" to="E1_out" departLane="best" departSpeed="max"/>
    <trip id="veh_221" type="BUS_SOR_NB95" depart="328.0" from="E1_in" to="S1_out" departLane="best" departSpeed="max"/>
    <trip id="veh_222" type="car" depart="328.0" from="N1_in" to="E1_out" departLane="best" departSpeed="max"/>
    <trip id="veh_223" type="car" depart="328.0" from="E1_in" to="N1_out" departLane="best" departSpeed="max"/>
    <person id="ped_22" depart="330.0">
        <walk from="PNEI_in" to="PNWI_out"/>
    </person>
    <trip id="veh_224" type="truck" depart="332.0" from="N1_in" to="E1_out" departLane="best" departSpeed="max"/>
    <trip id="veh_225" type="car" depart="332.0" from="N1_in" to="S1_out" departLane="best" departSpeed="max"/>
    <trip id="veh_226" type="car" depart="332.0" from="W1_in" to="N1_out" departLane="best" departSpeed="max"/>
    <trip id="veh_227" type="car" depart="336.0" from="N1_in" to="E1_out" departLane="best" departSpeed="max"/>
    <trip id="veh_228" type="car" depart="336.0" from="E1_in" to="W1_out" departLane="best" departSpeed="max"/>