<?xml version="1.0" encoding="UTF-8"?>

<!-- generated on 2026-04-06T13:22:17.990054+01:00 by Eclipse SUMO sumo 1.26.0
-->

<sumoConfiguration xmlns:xsi="http://www.w3.org/2001/XMLSchema-instance" xsi:noNamespaceSchemaLocation="http://sumo.dlr.de/xsd/sumoConfiguration.xsd">

    <input>
        <net-file value="Canonical.net.xml"/>
        <route-files value="Canonical-hard.rou.xml"/>
    </input>

</sumoConfiguration>
