<?xml version="1.0" encoding="UTF-8"?>

<!-- generated on 2026-04-08T17:51:07.101190+01:00 by Eclipse SUMO netedit 1.26.0
<neteditConfiguration xmlns:xsi="http://www.w3.org/2001/XMLSchema-instance" xsi:noNamespaceSchemaLocation="http://sumo.dlr.de/xsd/neteditConfiguration.xsd">

    <input>
        <sumo-net-file value="/home/tashmaf/PycharmProjects/TrafficLightControlReinforcementLearning/simulation/Galeria.net.xml"/>
    </input>

    <output>
        <output-file value="/home/tashmaf/PycharmProjects/TrafficLightControlReinforcementLearning/simulation/Galeria.net.xml"/>
    </output>

    <processing>
        <geometry.min-radius.fix.railways value="false"/>
        <geometry.avoid-overlap value="false"/>
        <geometry.max-grade.fix value="false"/>
        <offset.disable-normalization value="true"/>
        <lefthand value="0"/>
    </processing>

    <junctions>
        <no-internal-links value="false"/>
        <no-turnarounds value="true"/>
        <junctions.corner-detail value="5"/>
        <junctions.limit-turn-speed value="5.50"/>
        <rectangular-lane-cut value="0"/>
    </junctions>

    <pedestrian>
        <walkingareas value="1"/>
    </pedestrian>

</neteditConfiguration>
-->

<net version="1.20" junctionCornerDetail="5" walkingareas="true" limitTurnSpeed="5.50" avoidOverlap="0" xmlns:xsi="http://www.w3.org/2001/XMLSchema-instance" xsi:noNamespaceSchemaLocation="http://sumo.dlr.de/xsd/net_file.xsd">

    <location netOffset="0.00,0.00" convBoundary="-90.09,-100.43,83.19,94.34" origBoundary="-10000000000.00,-10000000000.00,10000000000.00,10000000000.00" projParameter="!"/>

    <edge id=":E2_in_0" function="internal">
        <lane id=":E2_in_0_0" index="0" disallow="pedestrian" speed="12.29" length="7.78" shape="32.91,12.75 30.65,12.84 29.15,13.30 27.75,14.13 25.78,15.36"/>
    </edge>
    <edge id=":E2_in_1" function="internal">
        <lane id=":E2_in_1_0" index="0" disallow="pedestrian" speed="13.89" length="7.46" shape="32.99,9.55 25.57,9.62"/>
        <lane id=":E2_in_1_1" index="1" disallow="pedestrian" speed="13.89" length="7.46" shape="33.07,6.35 25.58,6.42"/>
    </edge>
    <edge id=":E2_in_w0" function="walkingarea">
        <lane id=":E2_in_w0_0" index="0" allow="pedestrian" speed="2.78" length="6.18" width="2.00" shape="26.59,16.74 27.59,18.47 32.81,16.34 32.87,14.34 31.44,14.37 30.39,14.55 29.56,14.88 28.76,15.35 27.83,15.97"/>
    </edge>
    <edge id=":E2_out_0" function="internal">
        <lane id=":E2_out_0_0" index="0" disallow="pedestrian" speed="13.89" length="11.41" shape="55.95,-4.07 67.17,-4.19"/>
        <lane id=":E2_out_0_1" index="1" disallow="pedestrian" speed="13.89" length="11.41" shape="55.94,-0.87 67.18,-0.99"/>
        <lane id=":E2_out_0_2" index="2" disallow="pedestrian" speed="13.89" length="11.41" shape="55.94,-0.87 59.34,-0.39 61.56,0.67 63.79,1.73 67.18,2.21"/>
    </edge>
    <edge id=":E2_out_w0" function="walkingarea">
        <lane id=":E2_out_w0_0" index="0" allow="pedestrian" speed="2.78" length="11.22" width="2.00" shape="67.17,-5.79 67.17,-7.79 55.96,-7.67 55.95,-5.67"/>
    </edge>
    <edge id=":E4_out_0" function="internal">
        <lane id=":E4_out_0_0" index="0" disallow="pedestrian" speed="13.89" length="12.68" shape="30.22,-9.83 33.19,-7.46 35.25,-5.66 37.51,-4.51 41.09,-4.10"/>
    </edge>
    <edge id=":E4_out_1" function="internal">
        <lane id=":E4_out_1_0" index="0" disallow="pedestrian" speed="13.89" length="12.03" shape="29.05,-4.06 41.09,-4.10"/>
        <lane id=":E4_out_1_1" index="1" disallow="pedestrian" speed="13.89" length="12.03" shape="29.06,-0.86 41.09,-0.90"/>
    </edge>
    <edge id=":E4_out_w0" function="walkingarea">
        <lane id=":E4_out_w0_0" index="0" allow="pedestrian" speed="2.78" length="10.77" width="2.00" shape="41.10,-5.70 41.10,-7.70 32.28,-12.79 31.14,-11.15 33.10,-9.62 34.53,-8.30 35.74,-7.22 37.03,-6.40 38.71,-5.89"/>
    </edge>
    <edge id=":I_0" function="internal">
        <lane id=":I_0_0" index="0" disallow="pedestrian" speed="13.89" length="36.34" shape="-11.04,20.39 -10.35,-15.93"/>
        <lane id=":I_0_1" index="1" disallow="pedestrian" speed="13.89" length="36.34" shape="-7.84,20.36 -7.15,-15.98"/>
    </edge>
    <edge id=":I_2" function="internal">
        <lane id=":I_2_0" index="0" disallow="pedestrian" speed="13.44" length="38.17" shape="-4.64,20.33 -2.79,11.09 2.95,4.49 12.58,0.51 22.11,-0.45"/>
    </edge>
    <edge id=":I_14" function="internal">
        <lane id=":I_14_0" index="0" disallow="pedestrian" speed="13.44" length="4.02" shape="22.11,-0.45 26.11,-0.85"/>
    </edge>
    <edge id=":I_3" function="internal">
        <lane id=":I_3_0" index="0" allow="tram rail_urban rail rail_electric rail_fast cable_car subway" speed="13.89" length="37.72" shape="-0.40,21.26 -0.64,-16.45"/>
    </edge>
    <edge id=":I_4" function="internal">
        <lane id=":I_4_0" index="0" disallow="pedestrian" speed="13.89" length="47.79" shape="25.37,9.62 -22.42,8.28"/>
        <lane id=":I_4_1" index="1" disallow="pedestrian" speed="13.89" length="47.79" shape="25.38,6.42 -22.37,5.08"/>
    </edge>
    <edge id=":I_6" function="internal">
        <lane id=":I_6_0" index="0" disallow="pedestrian" speed="13.89" length="40.30" shape="25.38,6.42 11.27,4.92 1.15,0.68 -4.99,-6.28 -6.26,-12.00"/>
    </edge>
    <edge id=":I_15" function="internal">
        <lane id=":I_15_0" index="0" disallow="pedestrian" speed="13.89" length="4.08" shape="-6.26,-12.00 -7.15,-15.98"/>
    </edge>
    <edge id=":I_7" function="internal">
        <lane id=":I_7_0" index="0" disallow="pedestrian" speed="13.89" length="37.80" shape="12.43,-16.65 11.63,21.14"/>
        <lane id=":I_7_1" index="1" disallow="pedestrian" speed="13.89" length="37.80" shape="9.23,-16.61 8.43,21.17"/>
    </edge>
    <edge id=":I_9" function="internal">
        <lane id=":I_9_0" index="0" disallow="pedestrian" speed="13.11" length="36.75" shape="6.03,-16.56 4.37,-6.91 -0.92,-0.09 -9.83,3.91 -18.36,4.71"/>
    </edge>
    <edge id=":I_16" function="internal">
        <lane id=":I_16_0" index="0" disallow="pedestrian" speed="13.11" length="4.02" shape="-18.36,4.71 -22.37,5.08"/>
    </edge>
    <edge id=":I_10" function="internal">
        <lane id=":I_10_0" index="0" allow="tram rail_urban rail rail_electric rail_fast cable_car subway" speed="13.89" length="37.73" shape="2.56,-16.50 2.80,21.23"/>
    </edge>
    <edge id=":I_11" function="internal">
        <lane id=":I_11_0" index="0" disallow="pedestrian" speed="13.89" length="48.36" shape="-22.23,-3.46 26.10,-4.05"/>
        <lane id=":I_11_1" index="1" disallow="pedestrian" speed="13.89" length="48.36" shape="-22.28,-0.25 26.11,-0.85"/>
    </edge>
    <edge id=":I_13" function="internal">
        <lane id=":I_13_0" index="0" disallow="pedestrian" speed="13.47" length="38.38" shape="-22.28,-0.25 -8.93,0.86 0.64,4.81 6.43,11.58 7.60,17.18"/>
    </edge>
    <edge id=":I_17" function="internal">
        <lane id=":I_17_0" index="0" disallow="pedestrian" speed="13.47" length="4.08" shape="7.60,17.18 8.43,21.17"/>
    </edge>
    <edge id=":I_c0" function="crossing" crossingEdges="NT_out NT_in N5_in">
        <lane id=":I_c0_0" index="0" allow="pedestrian" speed="2.78" length="17.08" width="4.00" shape="4.40,19.23 -12.66,18.40" outlineShape="4.31,21.23 -12.76,20.40 -12.56,16.41 4.50,17.24 4.41,21.23 4.50,17.24"/>
    </edge>
    <edge id=":I_c1" function="crossing" crossingEdges="N5_out">
        <lane id=":I_c1_0" index="0" allow="pedestrian" speed="2.78" length="6.40" width="4.00" shape="13.21,19.13 6.81,19.19" outlineShape="13.23,21.13 6.83,21.19 6.79,17.19 6.83,21.19 6.79,17.19 13.19,17.13 13.33,21.13 15.23,21.11 18.25,19.43 18.28,17.43 15.18,17.24"/>
    </edge>
    <edge id=":I_c2" function="crossing" crossingEdges="E3_in">
        <lane id=":I_c2_0" index="0" allow="pedestrian" speed="2.78" length="6.40" width="4.00" shape="23.39,4.80 23.36,11.20" outlineShape="25.39,4.71 25.36,11.31 21.36,11.19 21.39,4.79 25.39,4.81 21.39,4.79"/>
    </edge>
    <edge id=":I_c3" function="crossing" crossingEdges="E5_out">
        <lane id=":I_c3_0" index="0" allow="pedestrian" speed="2.78" length="6.40" width="4.00" shape="24.09,-5.65 24.11,0.75" outlineShape="26.09,-5.75 26.11,0.85 22.11,0.76 26.11,0.75 22.11,0.76 22.09,-5.64"/>
    </edge>
    <edge id=":I_c4" function="crossing" crossingEdges="ST_out ST_in S5_in">
        <lane id=":I_c4_0" index="0" allow="pedestrian" speed="2.78" length="16.28" width="4.00" shape="-2.23,-14.44 14.06,-14.68" outlineShape="-2.26,-16.44 14.03,-16.68 14.08,-12.68 16.08,-12.82 14.08,-12.68 -2.20,-12.44 -2.35,-16.43 -2.20,-12.44"/>
    </edge>
    <edge id=":I_c5" function="crossing" crossingEdges="S5_out">
        <lane id=":I_c5_0" index="0" allow="pedestrian" speed="2.78" length="6.40" width="4.00" shape="-11.92,-13.91 -5.52,-14.01" outlineShape="-12.05,-15.91 -5.45,-16.01 -2.26,-16.44 -2.20,-12.44 -5.49,-12.01 -11.89,-11.91"/>
    </edge>
    <edge id=":I_c6" function="crossing" crossingEdges="W5_in">
        <lane id=":I_c6_0" index="0" allow="pedestrian" speed="2.78" length="6.40" width="4.00" shape="-20.25,1.31 -20.26,-5.09" outlineShape="-22.25,1.31 -22.26,-5.09 -22.17,-5.19 -22.17,-5.06 -18.26,-5.10 -18.48,-7.07 -18.26,-5.10 -18.25,1.30 -22.25,1.31 -18.25,1.30 -18.33,3.30"/>
    </edge>
    <edge id=":I_c7" function="crossing" crossingEdges="W3_out">
        <lane id=":I_c7_0" index="0" allow="pedestrian" speed="2.78" length="6.40" width="4.00" shape="-20.45,9.92 -20.34,3.52" outlineShape="-22.45,9.88 -22.34,3.48 -18.34,3.55 -22.34,3.48 -18.34,3.55 -18.45,9.95 -22.45,9.88 -22.48,11.88 -19.40,16.53 -17.40,16.55 -18.45,9.95"/>
    </edge>
    <edge id=":I_w0" function="walkingarea">
        <lane id=":I_w0_0" index="0" allow="pedestrian" speed="2.78" length="3.24" width="4.00" shape="-16.58,17.38 -16.57,19.38 -14.64,20.42 -12.64,20.40 -12.76,20.40 -12.56,16.41"/>
    </edge>
    <edge id=":I_w1" function="walkingarea">
        <lane id=":I_w1_0" index="0" allow="pedestrian" speed="2.78" length="4.06" width="4.00" shape="13.19,17.13 13.23,21.13 15.23,21.11 18.25,19.43 18.28,17.43"/>
    </edge>
    <edge id=":I_w2" function="walkingarea">
        <lane id=":I_w2_0" index="0" allow="pedestrian" speed="2.78" length="5.25" width="4.00" shape="19.02,16.78 21.02,16.75 25.35,13.22 25.37,11.22 21.36,11.19"/>
    </edge>
    <edge id=":I_w3" function="walkingarea">
        <lane id=":I_w3_0" index="0" allow="pedestrian" speed="2.78" length="5.12" width="4.00" shape="22.09,-5.64 26.09,-5.65 26.09,-7.65 24.54,-12.44 22.54,-12.42"/>
    </edge>
    <edge id=":I_w4" function="walkingarea">
        <lane id=":I_w4_0" index="0" allow="pedestrian" speed="2.78" length="5.64" width="4.00" shape="21.66,-13.23 21.65,-15.23 16.03,-16.71 14.03,-16.68 14.08,-12.68"/>
    </edge>
    <edge id=":I_w5" function="walkingarea">
        <lane id=":I_w5_0" index="0" allow="pedestrian" speed="2.78" length="4.98" width="4.00" shape="-11.89,-11.91 -11.95,-15.91 -13.95,-15.88 -17.99,-12.97 -17.94,-10.97"/>
    </edge>
    <edge id=":I_w6" function="walkingarea">
        <lane id=":I_w6_0" index="0" allow="pedestrian" speed="2.78" length="4.00" width="4.00" shape="-18.82,-10.22 -20.82,-10.12 -22.21,-7.06 -22.17,-5.06 -18.26,-5.10"/>
    </edge>
    <edge id=":I_w7" function="walkingarea">
        <lane id=":I_w7_0" index="0" allow="pedestrian" speed="2.78" length="5.38" width="4.00" shape="-18.45,9.95 -22.45,9.88 -22.48,11.88 -19.40,16.53 -17.40,16.55"/>
    </edge>
    <edge id=":I_w8" function="walkingarea">
        <lane id=":I_w8_0" index="0" allow="pedestrian" speed="2.78" length="2.41" width="4.00" shape="6.79,17.19 6.83,21.19 4.31,21.23 4.50,17.24"/>
    </edge>
    <edge id=":I_w9" function="walkingarea">
        <lane id=":I_w9_0" index="0" allow="pedestrian" speed="2.78" length="4.11" width="4.00" shape="22.11,0.76 26.11,0.75 25.39,4.81 21.39,4.79"/>
    </edge>
    <edge id=":I_w10" function="walkingarea">
        <lane id=":I_w10_0" index="0" allow="pedestrian" speed="2.78" length="3.32" width="4.00" shape="-5.49,-12.01 -5.55,-16.01 -2.26,-16.44 -2.20,-12.44"/>
    </edge>
    <edge id=":I_w11" function="walkingarea">
        <lane id=":I_w11_0" index="0" allow="pedestrian" speed="2.78" length="2.21" width="4.00" shape="-18.34,3.55 -22.34,3.48 -22.25,1.31 -18.25,1.30"/>
    </edge>
    <edge id=":I-NE_0" function="internal">
        <lane id=":I-NE_0_0" index="0" disallow="pedestrian" speed="13.89" length="8.69" shape="24.33,16.21 22.11,17.51 20.65,18.53 19.43,19.82 17.94,21.90"/>
    </edge>
    <edge id=":I-NE_c0" function="crossing" crossingEdges="NE_in">
        <lane id=":I-NE_c0_0" index="0" allow="pedestrian" speed="2.78" length="3.20" width="4.00" shape="21.79,15.83 23.40,18.60" outlineShape="23.52,14.82 25.13,17.59 24.21,18.28 23.62,19.06 23.36,19.91 23.43,20.80 23.50,20.95 21.68,19.60 20.06,16.84 20.14,16.96 19.02,16.98 19.67,17.35 20.50,17.09 21.14,16.68 21.75,16.15 22.49,15.52"/>
    </edge>
    <edge id=":I-NE_c1" function="crossing" crossingEdges="NE_out">
        <lane id=":I-NE_c1_0" index="0" allow="pedestrian" speed="2.78" length="3.20" width="4.00" shape="20.39,21.14 17.74,19.35" outlineShape="19.35,22.86 16.53,20.95 18.48,17.43 18.45,19.43 16.62,21.01 18.86,17.69 21.51,19.49 22.78,21.38 22.67,21.33 21.75,21.18 20.88,21.36 20.04,21.89"/>
    </edge>
    <edge id=":I-NE_w0" function="walkingarea">
        <lane id=":I-NE_w0_0" index="0" allow="pedestrian" speed="2.78" length="3.39" width="4.00" shape="19.27,22.80 20.92,23.92 23.24,24.03 24.59,22.56 23.62,21.80 22.67,21.33 21.75,21.18 20.88,21.36 20.04,21.89"/>
    </edge>
    <edge id=":I-NE_w1" function="walkingarea">
        <lane id=":I-NE_w1_0" index="0" allow="pedestrian" speed="2.78" length="3.12" width="4.00" shape="24.59,22.56 25.95,21.09 26.14,19.32 25.13,17.59 24.21,18.28 23.62,19.06 23.36,19.91 23.43,20.80 23.84,21.69"/>
    </edge>
    <edge id=":I-NE_w2" function="walkingarea">
        <lane id=":I-NE_w2_0" index="0" allow="pedestrian" speed="2.78" length="2.10" width="4.00" shape="23.52,14.82 21.02,16.95 19.02,16.98 19.67,17.35 20.50,17.09 21.14,16.68 21.75,16.15 22.49,15.52"/>
    </edge>
    <edge id=":I-NE_w3" function="walkingarea">
        <lane id=":I-NE_w3_0" index="0" allow="pedestrian" speed="2.78" length="1.17" width="4.00" shape="18.48,17.43 18.45,19.43 16.62,21.01 17.25,20.20 17.83,19.62 18.33,19.14 18.71,18.64 18.95,17.96"/>
    </edge>
    <edge id=":I-NW_0" function="internal">
        <lane id=":I-NW_0_0" index="0" disallow="pedestrian" speed="13.89" length="7.28" shape="-16.44,21.39 -17.74,19.67 -18.72,18.55 -19.84,17.58 -21.56,16.29"/>
    </edge>
    <edge id=":I-NW_c0" function="crossing" crossingEdges="NW_in">
        <lane id=":I-NW_c0_0" index="0" allow="pedestrian" speed="2.78" length="3.20" width="4.00" shape="-16.34,18.83 -18.92,20.73" outlineShape="-15.15,20.43 -17.73,22.34 -18.42,21.62 -19.16,21.26 -19.92,21.23 -20.69,21.50 -20.85,21.60 -20.10,19.12 -17.53,17.22 -16.78,17.38 -17.33,17.65 -17.11,18.28 -16.77,18.75 -16.31,19.19 -15.77,19.71"/>
    </edge>
    <edge id=":I-NW_c1" function="crossing" crossingEdges="NW_out">
        <lane id=":I-NW_c1_0" index="0" allow="pedestrian" speed="2.78" length="3.20" width="4.00" shape="-20.91,18.76 -19.00,16.19" outlineShape="-22.52,17.57 -20.61,15.00 -17.41,16.75 -19.41,16.73 -20.61,15.00 -17.40,17.39 -19.31,19.96 -21.22,21.22 -21.07,20.90 -20.94,20.02 -21.13,19.17 -21.65,18.36"/>
    </edge>
    <edge id=":I-NW_w0" function="walkingarea">
        <lane id=":I-NW_w0_0" index="0" allow="pedestrian" speed="2.78" length="2.99" width="4.00" shape="-22.23,22.76 -20.74,24.09 -19.34,23.52 -17.73,22.34 -18.42,21.62 -19.16,21.26 -19.92,21.23 -20.69,21.50 -21.47,22.02"/>
    </edge>
    <edge id=":I-NW_w1" function="walkingarea">
        <lane id=":I-NW_w1_0" index="0" allow="pedestrian" speed="2.78" length="0.62" width="4.00" shape="-15.15,20.43 -16.77,19.38 -16.78,17.38 -17.33,17.65 -17.11,18.28 -16.77,18.75 -16.31,19.19 -15.77,19.71"/>
    </edge>
    <edge id=":I-NW_w2" function="walkingarea">
        <lane id=":I-NW_w2_0" index="0" allow="pedestrian" speed="2.78" length="0.81" width="4.00" shape="-17.41,16.75 -19.41,16.73 -20.61,15.00 -19.85,15.65 -19.31,16.22 -18.86,16.70 -18.37,17.06 -17.72,17.30"/>
    </edge>
    <edge id=":I-NW_w3" function="walkingarea">
        <lane id=":I-NW_w3_0" index="0" allow="pedestrian" speed="2.78" length="3.29" width="4.00" shape="-22.52,17.57 -23.71,19.18 -23.72,21.42 -22.23,22.76 -21.51,21.81 -21.07,20.90 -20.94,20.02 -21.13,19.17 -21.65,18.36"/>
    </edge>
    <edge id=":I-SE_0" function="internal">
        <lane id=":I-SE_0_0" index="0" disallow="pedestrian" speed="13.89" length="8.11" shape="21.03,-17.75 22.52,-15.87 23.63,-14.64 24.89,-13.57 26.85,-12.18"/>
    </edge>
    <edge id=":I-SE_c0" function="crossing" crossingEdges="SE_out">
        <lane id=":I-SE_c0_0" index="0" allow="pedestrian" speed="2.78" length="3.20" width="4.00" shape="26.12,-14.64 24.29,-12.01" outlineShape="27.76,-13.50 25.93,-10.87 22.38,-12.76 22.54,-12.62 24.54,-12.64 25.93,-10.87 22.65,-13.15 24.47,-15.78 26.35,-17.10 26.19,-16.73 26.10,-15.87 26.33,-15.04 26.88,-14.24"/>
    </edge>
    <edge id=":I-SE_c1" function="crossing" crossingEdges="SE_in">
        <lane id=":I-SE_c1_0" index="0" allow="pedestrian" speed="2.78" length="3.20" width="4.00" shape="21.00,-15.19 23.52,-17.16" outlineShape="19.69,-16.71 22.29,-18.74 23.08,-17.91 23.90,-17.40 24.74,-17.22 25.60,-17.35 25.95,-17.54 24.75,-15.58 22.23,-13.61 21.85,-13.32 22.54,-12.62 24.54,-12.64 25.93,-10.87 24.44,-11.92 23.36,-12.73 22.52,-13.47 21.76,-14.28 20.89,-15.33"/>
    </edge>
    <edge id=":I-SE_w0" function="walkingarea">
        <lane id=":I-SE_w0_0" index="0" allow="pedestrian" speed="2.78" length="2.68" width="4.00" shape="19.77,-16.77 21.85,-15.23 21.86,-13.23 22.54,-12.62 24.54,-12.64 25.93,-10.87 24.44,-11.92 23.36,-12.73 22.52,-13.47 21.76,-14.28 20.89,-15.33"/>
    </edge>
    <edge id=":I-SE_w1" function="walkingarea">
        <lane id=":I-SE_w1_0" index="0" allow="pedestrian" speed="2.78" length="3.21" width="4.00" shape="27.76,-13.50 28.90,-15.14 28.78,-17.24 27.29,-18.57 26.59,-17.64 26.19,-16.73 26.10,-15.87 26.33,-15.04 26.88,-14.24"/>
    </edge>
    <edge id=":I-SE_w2" function="walkingarea">
        <lane id=":I-SE_w2_0" index="0" allow="pedestrian" speed="2.78" length="3.12" width="4.00" shape="27.29,-18.57 25.79,-19.90 23.87,-19.97 22.29,-18.74 23.08,-17.91 23.90,-17.40 24.74,-17.22 25.60,-17.35 26.45,-17.80"/>
    </edge>
    <edge id=":I-SW_0" function="internal">
        <lane id=":I-SW_0_0" index="0" disallow="pedestrian" speed="13.89" length="8.09" shape="-23.12,-9.91 -21.18,-11.31 -19.93,-12.38 -18.83,-13.61 -17.34,-15.49"/>
    </edge>
    <edge id=":I-SW_c0" function="crossing" crossingEdges="SW_out">
        <lane id=":I-SW_c0_0" index="0" allow="pedestrian" speed="2.78" length="3.20" width="4.00" shape="-19.83,-14.90 -17.31,-12.93" outlineShape="-18.60,-16.48 -16.08,-14.50 -18.14,-10.97 -18.19,-12.97 -16.08,-14.50 -18.54,-11.35 -21.07,-13.32 -22.25,-15.28 -21.91,-15.10 -21.06,-14.96 -20.21,-15.15 -19.39,-15.65"/>
    </edge>
    <edge id=":I-SW_c1" function="crossing" crossingEdges="SW_in">
        <lane id=":I-SW_c1_0" index="0" allow="pedestrian" speed="2.78" length="3.20" width="4.00" shape="-20.56,-9.75 -22.40,-12.37" outlineShape="-22.20,-8.60 -24.04,-11.22 -24.10,-11.30 -24.04,-11.22 -23.16,-11.98 -22.62,-12.77 -22.40,-13.61 -22.49,-14.48 -22.65,-14.83 -20.77,-13.52 -18.93,-10.90 -18.83,-10.42 -19.12,-10.87 -19.81,-10.63 -20.33,-10.27 -20.81,-9.80 -21.40,-9.24"/>
    </edge>
    <edge id=":I-SW_w0" function="walkingarea">
        <lane id=":I-SW_w0_0" index="0" allow="pedestrian" speed="2.78" length="0.96" width="4.00" shape="-22.20,-8.60 -20.83,-10.32 -18.83,-10.42 -19.12,-10.87 -19.81,-10.63 -20.33,-10.27 -20.81,-9.80 -21.40,-9.24"/>
    </edge>
    <edge id=":I-SW_w1" function="walkingarea">
        <lane id=":I-SW_w1_0" index="0" allow="pedestrian" speed="2.78" length="1.28" width="4.00" shape="-18.14,-10.97 -18.19,-12.97 -16.08,-14.50 -18.54,-11.35"/>
    </edge>
    <edge id=":I-SW_w2" function="walkingarea">
        <lane id=":I-SW_w2_0" index="0" allow="pedestrian" speed="2.78" length="3.12" width="4.00" shape="-18.60,-16.48 -20.18,-17.71 -22.09,-17.65 -23.59,-16.33 -22.76,-15.55 -21.91,-15.10 -21.06,-14.96 -20.21,-15.15 -19.39,-15.65"/>
    </edge>
    <edge id=":I-SW_w3" function="walkingarea">
        <lane id=":I-SW_w3_0" index="0" allow="pedestrian" speed="2.78" length="3.23" width="4.00" shape="-23.59,-16.33 -25.10,-15.01 -25.19,-12.86 -24.04,-11.22 -23.16,-11.98 -22.62,-12.77 -22.40,-13.61 -22.49,-14.48 -22.89,-15.39"/>
    </edge>
    <edge id=":J52_w0" function="walkingarea">
        <lane id=":J52_w0_0" index="0" allow="pedestrian" speed="2.78" length="2.00" width="4.00" shape="-27.45,28.58 -28.94,27.25 -25.96,29.91 -27.45,28.58"/>
    </edge>
    <edge id=":J55_w0" function="walkingarea">
        <lane id=":J55_w0_0" index="0" allow="pedestrian" speed="2.78" length="2.00" width="4.00" shape="-25.98,-19.04 -24.48,-20.36 -27.48,-17.72 -25.98,-19.04"/>
    </edge>
    <edge id=":J58_w0" function="walkingarea">
        <lane id=":J58_w0_0" index="0" allow="pedestrian" speed="2.78" length="2.00" width="4.00" shape="30.45,-22.13 31.94,-20.80 28.96,-23.46 30.45,-22.13"/>
    </edge>
    <edge id=":J61_w0" function="walkingarea">
        <lane id=":J61_w0_0" index="0" allow="pedestrian" speed="2.78" length="2.00" width="4.00" shape="29.15,26.76 27.80,28.23 30.50,25.29 29.15,26.76"/>
    </edge>
    <edge id=":N2_in_0" function="internal">
        <lane id=":N2_in_0_0" index="0" disallow="pedestrian" speed="13.89" length="8.20" shape="-10.49,73.24 -11.00,70.79 -12.10,69.27 -13.22,67.74 -13.75,65.30"/>
        <lane id=":N2_in_0_1" index="1" disallow="pedestrian" speed="13.89" length="8.20" shape="-10.49,73.24 -10.55,65.26"/>
        <lane id=":N2_in_0_2" index="2" disallow="pedestrian" speed="13.89" length="8.20" shape="-7.29,73.23 -7.35,65.22"/>
        <lane id=":N2_in_0_3" index="3" disallow="pedestrian" speed="13.89" length="8.20" shape="-4.09,73.23 -4.15,65.18"/>
    </edge>
    <edge id=":N2_in_w0" function="walkingarea">
        <lane id=":N2_in_w0_0" index="0" allow="pedestrian" speed="2.78" length="8.56" width="2.00" shape="-15.35,65.32 -17.35,65.34 -14.09,73.25 -12.09,73.24 -12.33,71.47 -12.93,70.24 -13.70,69.28 -14.48,68.32 -15.09,67.09"/>
    </edge>
    <edge id=":N2_out_0" function="internal">
        <lane id=":N2_out_0_0" index="0" disallow="pedestrian" speed="13.89" length="7.97" shape="12.07,79.00 12.08,86.99"/>
        <lane id=":N2_out_0_1" index="1" disallow="pedestrian" speed="13.89" length="7.97" shape="8.87,79.02 8.88,86.97"/>
    </edge>
    <edge id=":N2_out_w0" function="walkingarea">
        <lane id=":N2_out_w0_0" index="0" allow="pedestrian" speed="2.78" length="8.66" width="2.00" shape="13.68,87.00 15.68,87.01 15.92,85.21 16.52,83.96 17.30,82.98 18.06,82.00 18.65,80.75 18.87,78.95 16.87,78.97 16.65,80.76 16.06,82.01 15.30,82.98 14.52,83.95 13.92,85.20"/>
    </edge>
    <edge id=":N4_in_0" function="internal">
        <lane id=":N4_in_0_0" index="0" disallow="pedestrian" speed="9.82" length="6.06" shape="-14.20,27.04 -14.30,25.27 -14.62,24.08 -15.26,22.99 -16.32,21.55"/>
    </edge>
    <edge id=":N4_in_1" function="internal">
        <lane id=":N4_in_1_0" index="0" disallow="pedestrian" speed="13.89" length="6.41" shape="-11.00,27.00 -11.04,20.59"/>
        <lane id=":N4_in_1_1" index="1" disallow="pedestrian" speed="13.89" length="6.41" shape="-7.80,26.97 -7.84,20.56"/>
        <lane id=":N4_in_1_2" index="2" disallow="pedestrian" speed="13.89" length="6.41" shape="-4.60,26.93 -4.64,20.53"/>
    </edge>
    <edge id=":N4_in_w0" function="walkingarea">
        <lane id=":N4_in_w0_0" index="0" allow="pedestrian" speed="2.78" length="4.30" width="2.00" shape="-17.61,22.50 -19.22,23.68 -17.80,27.08 -15.80,27.06 -15.84,26.01 -15.96,25.22 -16.17,24.60 -16.50,24.01 -16.97,23.35"/>
    </edge>
    <edge id=":N4_out_0" function="internal">
        <lane id=":N4_out_0_0" index="0" disallow="pedestrian" speed="10.84" length="6.98" shape="17.41,22.68 16.22,24.38 15.45,25.63 15.04,26.98 14.93,29.01"/>
    </edge>
    <edge id=":N4_out_1" function="internal">
        <lane id=":N4_out_1_0" index="0" disallow="pedestrian" speed="13.89" length="7.46" shape="11.63,21.57 11.73,29.03"/>
        <lane id=":N4_out_1_1" index="1" disallow="pedestrian" speed="13.89" length="7.46" shape="8.43,21.60 8.53,29.05"/>
    </edge>
    <edge id=":N4_out_w0" function="walkingarea">
        <lane id=":N4_out_w0_0" index="0" allow="pedestrian" speed="2.78" length="5.26" width="2.00" shape="16.53,28.99 18.53,28.98 20.40,24.70 18.74,23.58 18.01,24.62 17.43,25.41 17.01,26.10 16.73,26.83 16.57,27.75"/>
    </edge>
    <edge id=":S2_in_0" function="internal">
        <lane id=":S2_in_0_0" index="0" disallow="pedestrian" speed="13.89" length="13.26" shape="10.51,-80.05 11.26,-76.11 12.80,-73.59 14.32,-71.08 15.04,-67.14"/>
        <lane id=":S2_in_0_1" index="1" disallow="pedestrian" speed="13.89" length="13.26" shape="10.51,-80.05 11.84,-67.10"/>
        <lane id=":S2_in_0_2" index="2" disallow="pedestrian" speed="13.89" length="13.26" shape="7.31,-79.99 8.64,-67.07"/>
        <lane id=":S2_in_0_3" index="3" disallow="pedestrian" speed="13.89" length="13.26" shape="7.31,-79.99 7.06,-76.12 6.40,-73.51 5.72,-70.90 5.44,-67.04"/>
    </edge>
    <edge id=":S2_in_w0" function="walkingarea">
        <lane id=":S2_in_w0_0" index="0" allow="pedestrian" speed="2.78" length="13.70" width="2.00" shape="16.64,-67.16 18.64,-67.18 18.29,-70.04 17.46,-72.05 16.40,-73.65 15.33,-75.24 14.49,-77.25 14.11,-80.11 12.11,-80.08 12.49,-77.22 13.33,-75.21 14.40,-73.62 15.46,-72.03 16.29,-70.01"/>
    </edge>
    <edge id=":S2_out_0" function="internal">
        <lane id=":S2_out_0_0" index="0" disallow="pedestrian" speed="13.89" length="9.30" shape="-10.97,-61.54 -10.94,-70.87"/>
        <lane id=":S2_out_0_1" index="1" disallow="pedestrian" speed="13.89" length="9.30" shape="-7.77,-61.58 -7.74,-70.84"/>
    </edge>
    <edge id=":S2_out_w0" function="walkingarea">
        <lane id=":S2_out_w0_0" index="0" allow="pedestrian" speed="2.78" length="9.96" width="2.00" shape="-12.54,-70.88 -14.54,-70.90 -14.80,-68.81 -15.41,-67.34 -16.20,-66.17 -16.97,-65.01 -17.56,-63.54 -17.77,-61.45 -15.77,-61.48 -15.56,-63.55 -14.97,-65.02 -14.20,-66.18 -13.41,-67.34 -12.80,-68.80"/>
    </edge>
    <edge id=":S4_in_0" function="internal">
        <lane id=":S4_in_0_0" index="0" disallow="pedestrian" speed="10.09" length="6.91" shape="15.46,-27.58 15.60,-25.58 16.04,-24.25 16.86,-23.05 18.15,-21.45"/>
    </edge>
    <edge id=":S4_in_1" function="internal">
        <lane id=":S4_in_1_0" index="0" disallow="pedestrian" speed="13.89" length="7.45" shape="12.26,-27.55 12.38,-20.10"/>
        <lane id=":S4_in_1_1" index="1" disallow="pedestrian" speed="13.89" length="7.45" shape="9.06,-27.51 9.18,-20.06"/>
        <lane id=":S4_in_1_2" index="2" disallow="pedestrian" speed="13.89" length="7.45" shape="5.86,-27.48 5.98,-20.02"/>
    </edge>
    <edge id=":S4_in_w1" function="walkingarea">
        <lane id=":S4_in_w1_0" index="0" allow="pedestrian" speed="2.78" length="5.03" width="2.00" shape="19.41,-22.44 20.99,-23.67 19.06,-27.62 17.06,-27.60 17.12,-26.39 17.29,-25.50 17.59,-24.79 18.03,-24.14 18.63,-23.40"/>
    </edge>
    <edge id=":S4_out_0" function="internal">
        <lane id=":S4_out_0_0" index="0" disallow="pedestrian" speed="13.89" length="6.91" shape="-10.35,-16.13 -10.47,-23.04"/>
        <lane id=":S4_out_0_1" index="1" disallow="pedestrian" speed="13.89" length="6.91" shape="-7.15,-16.18 -7.27,-23.09"/>
    </edge>
    <edge id=":S4_out_2" function="internal">
        <lane id=":S4_out_2_0" index="0" disallow="pedestrian" speed="9.67" length="6.71" shape="-16.15,-17.01 -14.92,-18.57 -14.15,-19.75 -13.76,-21.06 -13.67,-23.00"/>
    </edge>
    <edge id=":S4_out_w1" function="walkingarea">
        <lane id=":S4_out_w1_0" index="0" allow="pedestrian" speed="2.78" length="4.77" width="2.00" shape="-15.27,-22.98 -17.27,-22.96 -18.99,-19.23 -17.41,-18.00 -16.67,-18.92 -16.11,-19.64 -15.70,-20.27 -15.44,-20.96 -15.30,-21.82"/>
    </edge>
    <edge id=":W2_in_0" function="internal">
        <lane id=":W2_in_0_0" index="0" disallow="pedestrian" speed="13.89" length="9.78" shape="-76.49,-3.51 -73.58,-4.02 -71.72,-5.22 -69.86,-6.42 -66.94,-6.93"/>
        <lane id=":W2_in_0_1" index="1" disallow="pedestrian" speed="13.89" length="9.78" shape="-76.49,-3.51 -67.00,-3.73"/>
        <lane id=":W2_in_0_2" index="2" disallow="pedestrian" speed="13.89" length="9.78" shape="-76.55,-0.31 -67.06,-0.53"/>
    </edge>
    <edge id=":W2_in_w0" function="walkingarea">
        <lane id=":W2_in_w0_0" index="0" allow="pedestrian" speed="2.78" length="10.15" width="2.00" shape="-66.91,-8.53 -66.88,-10.53 -68.99,-10.30 -70.48,-9.66 -71.65,-8.82 -72.82,-7.98 -74.31,-7.34 -76.43,-7.11 -76.47,-5.11 -74.35,-5.34 -72.86,-5.98 -71.69,-6.82 -70.52,-7.66 -69.03,-8.30"/>
    </edge>
    <edge id=":W2_out_0" function="internal">
        <lane id=":W2_out_0_0" index="0" disallow="pedestrian" speed="13.89" length="13.25" shape="-24.75,14.01 -27.87,11.56 -30.02,9.68 -32.39,8.48 -36.13,8.02"/>
    </edge>
    <edge id=":W2_out_1" function="internal">
        <lane id=":W2_out_1_0" index="0" disallow="pedestrian" speed="13.89" length="12.61" shape="-23.53,8.27 -36.13,8.02"/>
        <lane id=":W2_out_1_1" index="1" disallow="pedestrian" speed="13.89" length="12.61" shape="-23.48,5.07 -36.10,4.82"/>
    </edge>
    <edge id=":W2_out_w0" function="walkingarea">
        <lane id=":W2_out_w0_0" index="0" allow="pedestrian" speed="2.78" length="11.38" width="2.00" shape="-36.14,9.62 -36.16,11.62 -26.77,16.99 -25.65,15.33 -27.73,13.75 -29.24,12.37 -30.51,11.24 -31.87,10.38 -33.64,9.83"/>