<?xml version="1.0" encoding="UTF-8"?>

<!-- generated on 2026-04-06T13:18:45.623297+01:00 by Eclipse SUMO netedit 1.26.0
-->

<routes xmlns:xsi="http://www.w3.org/2001/XMLSchema-instance" xsi:noNamespaceSchemaLocation="http://sumo.dlr.de/xsd/routes_file.xsd">
    <!-- Vehicles, persons and containers (sorted by depart) -->
    <trip id="t_0" type="DEFAULT_RAILTYPE" depart="0.00" from="ST_in" to="NT_out"/>
</routes>
