<?xml version="1.0" encoding="UTF-8"?>
<routes>
    <vehicle id="c1h21862c1:3" type="passenger1" depart="8.00" departPos="random" departSpeed="max" arrivalPos="random" arrivalSpeed="0.00" departLane="best">
        <route edges="-32850 -31890" />
    </vehicle>
    <vehicle id="h21862c1:3" type="passenger2b" depart="8.00" departPos="random" departSpeed="max" arrivalPos="random" arrivalSpeed="0.00" departLane="best">
        <route edges="-32850 -31890" />
    </vehicle>
    <vehicle id="nrh01c1h21862c1:3" type="passenger1" depart="8.00" departPos="random" departSpeed="max" arrivalPos="random" arrivalSpeed="0.00" departLane="best">
        <route edges="-32850 -31890" />
    </vehicle>
    <vehicle id="c1h38224c1:3" type="passenger1" depart="9.00" departPos="random" departSpeed="max" arrivalPos="random" arrivalSpeed="0.00" departLane="best">
        <route edges="-32850 -31890" />
    </vehicle>
    <vehicle id="h38224c1:3" type="passenger3" depart="9.00" departPos="random" departSpeed="max" arrivalPos="random" arrivalSpeed="0.00" departLane="best">
        <route edges="-32850 -31890" />
    </vehicle>
    <vehicle id="c1h55775c1:3" type="passenger5" depart="10.00" departPos="random" departSpeed="max" arrivalPos="random" arrivalSpeed="0.00" departLane="best">
        <route edges="-32850 -31890" />
    </vehicle>
    <vehicle id="h55775c1:3" type="passenger1" depart="10.00" departPos="random" departSpeed="max" arrivalPos="random" arrivalSpeed="0.00" departLane="best">
        <route edges="-32850 -31890" />
    </vehicle>
    <vehicle id="c1h38543c1:3" type="passenger1" depart="12.00" departPos="random" departSpeed="max" arrivalPos="random" arrivalSpeed="0.00" departLane="best">
        <route edges="-32850 -31890" />
    </vehicle>
    <vehicle id="h38543c1:3" type="passenger2a" depart="12.00" departPos="random" departSpeed="max" arrivalPos="random" arrivalSpeed="0.00" departLane="best">
        <route edges="-32850 -31890" />
    </vehicle>
    <vehicle id="c1h18843c1:3" type="passenger1" depart="14.00" departPos="random" departSpeed="max" arrivalPos="random" arrivalSpeed="0.00" departLane="best">
        <route edges="-32850 -31890" />
    </vehicle>
    <vehicle id="c1h52019c2:3" type="passenger3" depart="14.00" departPos="random" departSpeed="max" arrivalPos="random" arrivalSpeed="0.00" departLane="best">
        <route edges="--31890 --32410#0" />
    </vehicle>
    <vehicle id="h18843c1:3" type="passenger1" depart="14.00" departPos="random" departSpeed="max" arrivalPos="random" arrivalSpeed="0.00" departLane="best">
        <route edges="-32850 -31890" />
    </vehicle>
    <vehicle id="h52019c2:3" type="passenger2a" depart="14.00" departPos="random" departSpeed="max" arrivalPos="random" arrivalSpeed="0.00" departLane="best">
        <route edges="--31890 --32410#0" />
    </vehicle>
    <vehicle id="nrh01c1h18843c1:3" type="passenger1" depart="14.00" departPos="random" departSpeed="max" arrivalPos="random" arrivalSpeed="0.00" departLane="best">
        <route edges="-32850 -31890" />
    </vehicle>
    <vehicle id="c1h17614c1:3" type="passenger2a" depart="16.00" departPos="random" departSpeed="max" arrivalPos="random" arrivalSpeed="0.00" departLane="best">
        <route edges="-32410#0 -32410#1" />
    </vehicle>
    <vehicle id="h17614c1:3" type="passenger5" depart="16.00" departPos="random" departSpeed="max" arrivalPos="random" arrivalSpeed="0.00" departLane="best">
        <route edges="-32410#0 -32410#1" />
    </vehicle>
    <vehicle id="nrh01c1h17614c1:3" type="passenger2a" depart="16.00" departPos="random" departSpeed="max" arrivalPos="random" arrivalSpeed="0.00" departLane="best">
        <route edges="-32410#0 -32410#1" />
    </vehicle>
    <vehicle id="c1h9019c1:3" type="passenger1" depart="26.00" departPos="random" departSpeed="max" arrivalPos="random" arrivalSpeed="0.00" departLane="best">
        <route edges="-32410#0 -31890" />
    </vehicle>
    <vehicle id="h9019c1:3" type="passenger2b" depart="26.00" departPos="random" departSpeed="max" arrivalPos="random" arrivalSpeed="0.00" departLane="best">
        <route edges="-32410#0 -31890" />
    </vehicle>
    <vehicle id="c1randUni8198:1" type="passenger1" depart="29.00" departPos="random" departSpeed="max" arrivalPos="random" arrivalSpeed="0.00" departLane="best">
        <route edges="-32410#0 -32410#1" />
    </vehicle>
    <vehicle id="nrh01randUni8198:1" type="passenger2b" depart="29.00" departPos="random" departSpeed="max" arrivalPos="random" arrivalSpeed="0.00" departLane="best">
        <route edges="-32410#0 -32410#1" />
    </vehicle>
    <vehicle id="randUni8198:1" type="passenger2b" depart="29.00" departPos="random" departSpeed="max" arrivalPos="random" arrivalSpeed="0.00" departLane="best">
        <route edges="-32410#0 -32410#1" />
    </vehicle>
    <vehicle id="c1h55778c1:5" type="passenger1" depart="34.00" departPos="random" departSpeed="max" arrivalPos="random" arrivalSpeed="0.00" departLane="best">
        <route edges="-32850 -31890" />
    </vehicle>
    <vehicle id="h55778c1:5" type="passenger1" depart="34.00" departPos="random" departSpeed="max" arrivalPos="random" arrivalSpeed="0.00" departLane="best">
        <route edges="-32850 -31890" />
    </vehicle>
    <vehicle id="c1h13703c2:3" type="passenger3" depart="35.00" departPos="random" departSpeed="max" arrivalPos="random" arrivalSpeed="0.00" departLane="best">
        <route edges="--32410#1 --32410#0" />
    </vehicle>
    <vehicle id="h13703c2:3" type="passenger1" depart="35.00" departPos="random" departSpeed="max" arrivalPos="random" arrivalSpeed="0.00" departLane="best">
        <route edges="--32410#1 --32410#0" />
    </vehicle>
    <vehicle id="nrh01c1h13703c2:3" type="passenger3" depart="35.00" departPos="random" departSpeed="max" arrivalPos="random" arrivalSpeed="0.00" departLane="best">
        <route edges="--32410#1 --32410#0" />
    </vehicle>
    <vehicle id="c1h49279c1:3" type="passenger1" depart="36.00" departPos="random" departSpeed="max" arrivalPos="random" arrivalSpeed="0.00" departLane="best">
        <route edges="-32410#0 -32410#1" />
    </vehicle>
    <vehicle id="h49279c1:3" type="passenger1" depart="36.00" departPos="random" departSpeed="max" arrivalPos="random" arrivalSpeed="0.00" departLane="best">
        <route edges="-32410#0 -32410#1" />
    </vehicle>
    <vehicle id="c1h63814c1:3" type="passenger3" depart="37.00" departPos="random" departSpeed="max" arrivalPos="random" arrivalSpeed="0.00" departLane="best">
        <route edges="--32410#1 --32410#0" />
    </vehicle>
    <vehicle id="h63814c1:3" type="passenger4" depart="37.00" departPos="random" departSpeed="max" arrivalPos="random" arrivalSpeed="0.00" departLane="best">
        <route edges="--32410#1 --32410#0" />
    </vehicle>
    <vehicle id="c1h1910c1:3" type="passenger4" depart="43.00" departPos="random" departSpeed="max" arrivalPos="random" arrivalSpeed="0.00" departLane="best">
        <route edges="--32410#1 -31890" />
    </vehicle>
    <vehicle id="h1910c1:3" type="passenger4" depart="43.00" departPos="random" departSpeed="max" arrivalPos="random" arrivalSpeed="0.00" departLane="best">
        <route edges="--32410#1 -31890" />
    </vehicle>
    <vehicle id="c1h66772c1:3" type="passenger1" depart="47.00" departPos="random" departSpeed="max" arrivalPos="random" arrivalSpeed="0.00" departLane="best">
        <route edges="-32410#0 -32410#1" />
    </vehicle>
    <vehicle id="h66772c1:3" type="passenger1" depart="47.00" departPos="random" departSpeed="max" arrivalPos="random" arrivalSpeed="0.00" departLane="best">
        <route edges="-32410#0 -32410#1" />
    </vehicle>
    <vehicle id="c1h33227c1:3" type="passenger4" depart="49.00" departPos="random" departSpeed="max" arrivalPos="random" arrivalSpeed="0.00" departLane="best">
        <route edges="--32410#1 --32410#0" />
    </vehicle>
    <vehicle id="h33227c1:3" type="passenger2a" depart="49.00" departPos="random" departSpeed="max" arrivalPos="random" arrivalSpeed="0.00" departLane="best">
        <route edges="--32410#1 --32410#0" />
    </vehicle>
    <vehicle id="nrh01c1h33227c1:3" type="passenger4" depart="49.00" departPos="random" departSpeed="max" arrivalPos="random" arrivalSpeed="0.00" departLane="best">
        <route edges="--32410#1 --32410#0" />
    </vehicle>
    <vehicle id="c1h7671c1:3" type="passenger1" depart="55.00" departPos="random" departSpeed="max" arrivalPos="random" arrivalSpeed="0.00" departLane="best">
        <route edges="-32410#0 -32410#1" />
    </vehicle>
    <vehicle id="h7671c1:3" type="passenger2a" depart="55.00" departPos="random" departSpeed="max" arrivalPos="random" arrivalSpeed="0.00" departLane="best">
        <route edges="-32410#0 -32410#1" />
    </vehicle>
    <vehicle id="c1h11392c1:3" type="passenger4" depart="58.00" departPos="random" departSpeed="max" arrivalPos="random" arrivalSpeed="0.00" departLane="best">
        <route edges="--32410#1 --32410#0" />
    </vehicle>
    <vehicle id="h11392c1:3" type="passenger2a" depart="58.00" departPos="random" departSpeed="max" arrivalPos="random" arrivalSpeed="0.00" departLane="best">
        <route edges="--32410#1 --32410#0" />
    </vehicle>
    <vehicle id="nrh01c1h11392c1:3" type="passenger4" depart="58.00" departPos="random" departSpeed="max" arrivalPos="random" arrivalSpeed="0.00" departLane="best">
        <route edges="--32410#1 --32410#0" />
    </vehicle>
    <vehicle id="c1h7100c1:3" type="passenger1" depart="63.00" departPos="random" departSpeed="max" arrivalPos="random" arrivalSpeed="0.00" departLane="best">
        <route edges="--31890 -32410#1" />
    </vehicle>
    <vehicle id="h7100c1:3" type="passenger5" depart="63.00" departPos="random" departSpeed="max" arrivalPos="random" arrivalSpeed="0.00" departLane="best">
        <route edges="--31890 -32410#1" />
    </vehicle>
    <vehicle id="c1h36401c1:3" type="passenger2b" depart="64.00" departPos="random" departSpeed="max" arrivalPos="random" arrivalSpeed="0.00" departLane="best">
        <route edges="-32850 -31890" />
    </vehicle>
    <vehicle id="h36401c1:3" type="passenger1" depart="64.00" departPos="random" departSpeed="max" arrivalPos="random" arrivalSpeed="0.00" departLane="best">
        <route edges="-32850 -31890" />
    </vehicle>
    <vehicle id="nrh01c1h36401c1:3" type="passenger2b" depart="64.00" departPos="random" departSpeed="max" arrivalPos="random" arrivalSpeed="0.00" departLane="best">
        <route edges="-32850 -31890" />
    </vehicle>
    <vehicle id="c1h45588c1:3" type="passenger1" depart="67.00" departPos="random" departSpeed="max" arrivalPos="random" arrivalSpeed="0.00" departLane="best">
        <route edges="-32410#0 -32410#1" />
    </vehicle>
    <vehicle id="h45588c1:3" type="passenger2a" depart="67.00" departPos="random" departSpeed="max" arrivalPos="random" arrivalSpeed="0.00" departLane="best">
        <route edges="-32410#0 -32410#1" />
    </vehicle>
    <vehicle id="nrh01c1h45588c1:3" type="passenger1" depart="67.00" departPos="random" departSpeed="max" arrivalPos="random" arrivalSpeed="0.00" departLane="best">
        <route edges="-32410#0 -32410#1" />
    </vehicle>
    <vehicle id="c1h20618c2:3" type="passenger2a" depart="72.00" departPos="random" departSpeed="max" arrivalPos="random" arrivalSpeed="0.00" departLane="best">
        <route edges="-32850 -31890" />
    </vehicle>
    <vehicle id="h20618c2:3" type="passenger1" depart="72.00" departPos="random" departSpeed="max" arrivalPos="random" arrivalSpeed="0.00" departLane="best">
        <route edges="-32850 -31890" />
    </vehicle>
    <vehicle id="nrh01c1h20618c2:3" type="passenger2a" depart="72.00" departPos="random" departSpeed="max" arrivalPos="random" arrivalSpeed="0.00" departLane="best">
        <route edges="-32850 -31890" />
    </vehicle>
    <vehicle id="c1h2519c1:3" type="passenger1" depart="75.00" departPos="random" departSpeed="max" arrivalPos="random" arrivalSpeed="0.00" departLane="best">
        <route edges="-32850 -31890" />
    </vehicle>
    <vehicle id="h2519c1:3" type="passenger1" depart="75.00" departPos="random" departSpeed="max" arrivalPos="random" arrivalSpeed="0.00" departLane="best">
        <route edges="-32850 -31890" />
    </vehicle>
    <vehicle id="nrh01c1h2519c1:3" type="passenger1" depart="75.00" departPos="random" departSpeed="max" arrivalPos="random" arrivalSpeed="0.00" departLane="best">
        <route edges="-32850 -31890" />
    </vehicle>
    <vehicle id="c1h29397c1:3" type="passenger3" depart="77.00" departPos="random" departSpeed="max" arrivalPos="random" arrivalSpeed="0.00" departLane="best">
        <route edges="--32410#1 --32410#0" />
    </vehicle>
    <vehicle id="h29397c1:3" type="passenger3" depart="77.00" departPos="random" departSpeed="max" arrivalPos="random" arrivalSpeed="0.00" departLane="best">
        <route edges="--32410#1 --32410#0" />
    </vehicle>
    <vehicle id="c1h47663c1:3" type="passenger2b" depart="79.00" departPos="random" departSpeed="max" arrivalPos="random" arrivalSpeed="0.00" departLane="best">
        <route edges="-32850 -31890" />
    </vehicle>
    <vehicle id="h47663c1:3" type="passenger1" depart="79.00" departPos="random" departSpeed="max" arrivalPos="random" arrivalSpeed="0.00" departLane="best">
        <route edges="-32850 -31890" />
    </vehicle>
    <vehicle id="c1h50971c1:3" type="passenger2a" depart="82.00" departPos="random" departSpeed="max" arrivalPos="random" arrivalSpeed="0.00" departLane="best">
        <route edges="-32410#0 -32410#1" />
    </vehicle>
    <vehicle id="h50971c1:3" type="passenger1" depart="82.00" departPos="random" departSpeed="max" arrivalPos="random" arrivalSpeed="0.00" departLane="best">
        <route edges="-32410#0 -32410#1" />
    </vehicle>
    <vehicle id="nrh01h50971c1:3" type="passenger1" depart="82.00" departPos="random" departSpeed="max" arrivalPos="random" arrivalSpeed="0.00" departLane="best">
        <route edges="-32410#0 -32410#1" />
    </vehicle>
    <vehicle id="c1h51222c1:3" type="passenger1" depart="85.00" departPos="random" departSpeed="max" arrivalPos="random" arrivalSpeed="0.00" departLane="best">
        <route edges="-32410#0 -32410#1" />
    </vehicle>
    <vehicle id="h51222c1:3" type="passenger1" depart="85.00" departPos="random" departSpeed="max" arrivalPos="random" arrivalSpeed="0.00" departLane="best">
        <route edges="-32410#0 -32410#1" />
    </vehicle>
    <vehicle id="c1h46183c1:3" type="passenger2b" depart="94.00" departPos="random" departSpeed="max" arrivalPos="random" arrivalSpeed="0.00" departLane="best">
        <route edges="-32410#0 -32410#1" />
    </vehicle>
    <vehicle id="h46183c1:3" type="passenger1" depart="94.00" departPos="random" departSpeed="max" arrivalPos="random" arrivalSpeed="0.00" departLane="best">
        <route edges="-32410#0 -32410#1" />
    </vehicle>
    <vehicle id="nrh01c1h46183c1:3" type="passenger2b" depart="94.00" departPos="random" departSpeed="max" arrivalPos="random" arrivalSpeed="0.00" departLane="best">
        <route edges="-32410#0 -32410#1" />
    </vehicle>
    <vehicle id="h40183c1:3" type="passenger2a" depart="95.00" departPos="random" departSpeed="max" arrivalPos="random" arrivalSpeed="0.00" departLane="best">
        <route edges="-32410#0 -32410#1" />
    </vehicle>
    <vehicle id="c1h55712c1:5" type="passenger1" depart="97.00" departPos="random" departSpeed="max" arrivalPos="random" arrivalSpeed="0.00" departLane="best">
        <route edges="--32410#1 --32410#0" />
    </vehicle>
    <vehicle id="h55712c1:5" type="passenger2a" depart="97.00" departPos="random" departSpeed="max" arrivalPos="random" arrivalSpeed="0.00" departLane="best">
        <route edges="--32410#1 --32410#0" />
    </vehicle>
    <vehicle id="nrh01c1h55712c1:5" type="passenger1" depart="97.00" departPos="random" departSpeed="max" arrivalPos="random" arrivalSpeed="0.00" departLane="best">
        <route edges="--32410#1 --32410#0" />
    </vehicle>
    <vehicle id="c1h30143c1:3" type="passenger1" depart="98.00" departPos="random" departSpeed="max" arrivalPos="random" arrivalSpeed="0.00" departLane="best">
        <route edges="-32850 -31890" />
    </vehicle>
    <vehicle id="h30143c1:3" type="passenger3" depart="98.00" departPos="random" departSpeed="max" arrivalPos="random" arrivalSpeed="0.00" departLane="best">
        <route edges="-32850 -31890" />
    </vehicle>
    <vehicle id="c1h17867c1:3" type="passenger2b" depart="99.00" departPos="random" departSpeed="max" arrivalPos="random" arrivalSpeed="0.00" departLane="best">
        <route edges="--31890 --32410#0" />
    </vehicle>
    <vehicle id="c1randUni20557:1" type="passenger3" depart="99.00" departPos="random" departSpeed="max" arrivalPos="random" arrivalSpeed="0.00" departLane="best">
        <route edges="-32410#0 -32410#1" />
    </vehicle>
    <vehicle id="h17867c1:3" type="passenger2a" depart="99.00" departPos="random" departSpeed="max" arrivalPos="random" arrivalSpeed="0.00" departLane="best">
        <route edges="--31890 --32410#0" />
    </vehicle>
    <vehicle id="nrh01c1randUni20557:1" type="passenger3" depart="99.00" departPos="random" departSpeed="max" arrivalPos="random" arrivalSpeed="0.00" departLane="best">
        <route edges="-32410#0 -32410#1" />
    </vehicle>
    <vehicle id="randUni20557:1" type="passenger1" depart="99.00" departPos="random" departSpeed="max" arrivalPos="random" arrivalSpeed="0.00" departLane="best">
        <route edges="-32410#0 -32410#1" />
    </vehicle>
    <vehicle id="c1h18385c1:3" type="passenger5" depart="104.00" departPos="random" departSpeed="max" arrivalPos="random" arrivalSpeed="0.00" departLane="best">
        <route edges="--32410#1 --32410#0" />
    </vehicle>
    <vehicle id="h18385c1:3" type="passenger1" depart="104.00" departPos="random" departSpeed="max" arrivalPos="random" arrivalSpeed="0.00" departLane="best">
        <route edges="--32410#1 --32410#0" />
    </vehicle>
    <vehicle id="nrh01h18385c1:3" type="passenger1" depart="104.00" departPos="random" departSpeed="max" arrivalPos="random" arrivalSpeed="0.00" departLane="best">
        <route edges="--32410#1 --32410#0" />
    </vehicle>
    <vehicle id="c1h73925c1:3" type="passenger1" depart="108.00" departPos="random" departSpeed="max" arrivalPos="random" arrivalSpeed="0.00" departLane="best">
        <route edges="--32410#1 --32410#0" />
    </vehicle>
    <vehicle id="h73925c1:3" type="passenger2a" depart="108.00" departPos="random" departSpeed="max" arrivalPos="random" arrivalSpeed="0.00" departLane="best">
        <route edges="--32410#1 --32410#0" />
    </vehicle>
    <vehicle id="c1h9321c1:3" type="passenger1" depart="113.00" departPos="random" departSpeed="max" arrivalPos="random" arrivalSpeed="0.00" departLane="best">
        <route edges="-32410#0 -32410#1" />
    </vehicle>
    <vehicle id="h9321c1:3" type="passenger1" depart="113.00" departPos="random" departSpeed="max" arrivalPos="random" arrivalSpeed="0.00" departLane="best">
        <route edges="-32410#0 -32410#1" />
    </vehicle>
    <vehicle id="c1h10651c1:3" type="passenger2a" depart="121.00" departPos="random" departSpeed="max" arrivalPos="random" arrivalSpeed="0.00" departLane="best">
        <route edges="-32850 -31890" />
    </vehicle>
    <vehicle id="h10651c1:3" type="passenger2b" depart="121.00" departPos="random" departSpeed="max" arrivalPos="random" arrivalSpeed="0.00" departLane="best">
        <route edges="-32850 -31890" />
    </vehicle>
    <vehicle id="c1h18170c1:3" type="passenger2a" depart="124.00" departPos="random" departSpeed="max" arrivalPos="random" arrivalSpeed="0.00" departLane="best">
        <route edges="-32850 -31890" />
    </vehicle>
    <vehicle id="h18170c1:3" type="passenger1" depart="124.00" departPos="random" departSpeed="max" arrivalPos="random" arrivalSpeed="0.00" departLane="best">
        <route edges="-32850 -31890" />
    </vehicle>
    <vehicle id="c1randUni19898:1" type="passenger2b" depart="126.00" departPos="random" departSpeed="max" arrivalPos="random" arrivalSpeed="0.00" departLane="best">
        <route edges="--32410#1 --32410#0" />
    </vehicle>
    <vehicle id="randUni19898:1" type="passenger1" depart="126.00" departPos="random" departSpeed="max" arrivalPos="random" arrivalSpeed="0.00" departLane="best">
        <route edges="--32410#1 --32410#0" />
    </vehicle>
    <vehicle id="c1h52036c1:3" type="passenger2a" depart="129.00" departPos="random" departSpeed="max" arrivalPos="random" arrivalSpeed="0.00" departLane="best">
        <route edges="--32410#1 --32410#0" />
    </vehicle>
    <vehicle id="h52036c1:3" type="passenger1" depart="129.00" departPos="random" departSpeed="max" arrivalPos="random" arrivalSpeed="0.00" departLane="best">
        <route edges="--32410#1 --32410#0" />
    </vehicle>
    <vehicle id="c1h73148c2:3" type="passenger2a" depart="131.00" departPos="random" departSpeed="max" arrivalPos="random" arrivalSpeed="0.00" departLane="best">
        <route edges="--32410#1 -31890" />
    </vehicle>
    <vehicle id="h73148c2:3" type="passenger2b" depart="131.00" departPos="random" departSpeed="max" arrivalPos="random" arrivalSpeed="0.00" departLane="best">
        <route edges="--32410#1 -31890" />
    </vehicle>
    <vehicle id="c1h19258c1:3" type="passenger1" depart="134.00" departPos="random" departSpeed="0.00" arrivalPos="random" arrivalSpeed="0.00">
        <route edges="--32410#0" />
    </vehicle>
    <vehicle id="h19258c1:3" type="passenger2b" depart="134.00" departPos="random" departSpeed="0.00" arrivalPos="random" arrivalSpeed="0.00">
        <route edges="--32410#0" />
    </vehicle>
    <vehicle id="nrh01c1h19258c1:3" type="passenger1" depart="134.00" departPos="random" departSpeed="0.00" arrivalPos="random" arrivalSpeed="0.00">
        <route edges="--32410#0" />
    </vehicle>
    <vehicle id="c1h39387c1:3" type="passenger2a" depart="138.00" departPos="random" departSpeed="max" arrivalPos="random" arrivalSpeed="0.00" departLane="best">
        <route edges="--32410#1 --32410#0" />
    </vehicle>
    <vehicle id="c1randUni8868:1" type="passenger2a" depart="138.00" departPos="random" departSpeed="max" arrivalPos="random" arrivalSpeed="0.00" departLane="best">
        <route edges="-32850 -31890" />
    </vehicle>
    <vehicle id="h39387c1:3" type="passenger1" depart="138.00" departPos="random" departSpeed="max" arrivalPos="random" arrivalSpeed="0.00" departLane="best">
        <route edges="--32410#1 --32410#0" />
    </vehicle>
    <vehicle id="randUni8868:1" type="passenger2b" depart="138.00" departPos="random" departSpeed="max" arrivalPos="random" arrivalSpeed="0.00" departLane="best">
        <route edges="-32850 -31890" />
    </vehicle>
    <vehicle id="c1h58985c1:3" type="passenger1" depart="150.00" departPos="random" departSpeed="max" arrivalPos="random" arrivalSpeed="0.00" departLane="best">
        <route edges="-32850 -31890" />
    </vehicle>
    <vehicle id="h58985c1:3" type="passenger1" depart="150.00" departPos="random" departSpeed="max" arrivalPos="random" arrivalSpeed="0.00" departLane="best">
        <route edges="-32850 -31890" />
    </vehicle>
    <vehicle id="c1h34804c1:3" type="passenger2b" depart="162.00" departPos="random" departSpeed="max" arrivalPos="random" arrivalSpeed="0.00" departLane="best">
        <route edges="--32410#1 --32410#0" />
    </vehicle>
    <vehicle id="h34804c1:3" type="passenger1" depart="162.00" departPos="random" departSpeed="max" arrivalPos="random" arrivalSpeed="0.00" departLane="best">
        <route edges="--32410#1 --32410#0" />
    </vehicle>
    <vehicle id="c1h51797c1:3" type="passenger1" depart="165.00" departPos="random" departSpeed="max" arrivalPos="random" arrivalSpeed="0.00" departLane="best">
        <route edges="-32410#0 -32410#1" />
    </vehicle>
    <vehicle id="c1h60537c1:3" type="passenger2a" depart="165.00" departPos="random" departSpeed="max" arrivalPos="random" arrivalSpeed="0.00" departLane="best">
        <route edges="--32410#1 --32410#0" />
    </vehicle>
    <vehicle id="h51797c1:3" type="passenger3" depart="165.00" departPos="random" departSpeed="max" arrivalPos="random" arrivalSpeed="0.00" departLane="best">
        <route edges="-32410#0 -32410#1" />
    </vehicle>
    <vehicle id="h60537c1:3" type="passenger3" depart="165.00" departPos="random" departSpeed="max" arrivalPos="random" arrivalSpeed="0.00" departLane="best">
        <route edges="--32410#1 --32410#0" />
    </vehicle>
    <vehicle id="nrh01c1h51797c1:3" type="passenger1" depart="165.00" departPos="random" departSpeed="max" arrivalPos="random" arrivalSpeed="0.00" departLane="best">
        <route edges="-32410#0 -32410#1" />
    </vehicle>
    <vehicle id="c1h73101c1:3" type="passenger2b" depart="168.00" departPos="random" departSpeed="max" arrivalPos="random" arrivalSpeed="0.00" departLane="best">
        <route edges="-32410#0 -32410#1" />
    </vehicle>
    <vehicle id="h73101c1:3" type="passenger1" depart="168.00" departPos="random" departSpeed="max" arrivalPos="random" arrivalSpeed="0.00" departLane="best">
        <route edges="-32410#0 -32410#1" />
    </vehicle>
    <vehicle id="c1h36363c1:3" type="passenger1" depart="170.00" departPos="random" departSpeed="max" arrivalPos="random" arrivalSpeed="0.00" departLane="best">
        <route edges="-32850 -31890" />
    </vehicle>
    <vehicle id="h36363c1:3" type="passenger2a" depart="170.00" departPos="random" departSpeed="max" arrivalPos="random" arrivalSpeed="0.00" departLane="best">
        <route edges="-32850 -31890" />
    </vehicle>
    <vehicle id="c1h25334c1:3" type="passenger2a" depart="178.00" departPos="random" departSpeed="max" arrivalPos="random" arrivalSpeed="0.00" departLane="best">
        <route edges="--32410#1 --32410#0" />
    </vehicle>
    <vehicle id="h25334c1:3" type="passenger3" depart="178.00" departPos="random" departSpeed="max" arrivalPos="random" arrivalSpeed="0.00" departLane="best">
        <route edges="--32410#1 --32410#0" />
    </vehicle>
    <vehicle id="c1h67298c2:3" type="passenger2b" depart="179.00" departPos="random" departSpeed="max" arrivalPos="random" arrivalSpeed="0.00" departLane="best">
        <route edges="-32850 -31890" />
    </vehicle>
    <vehicle id="h67298c2:3" type="passenger5" depart="179.00" departPos="random" departSpeed="max" arrivalPos="random" arrivalSpeed="0.00" departLane="best">
        <route edges="-32850 -31890" />
    </vehicle>
    <vehicle id="nrh01c1h67298c2:3" type="passenger2b" depart="179.00" departPos="random" departSpeed="max" arrivalPos="random" arrivalSpeed="0.00" departLane="best">
        <route edges="-32850 -31890" />
    </vehicle>
    <vehicle id="c1h14252c2:3" type="passenger1" depart="185.00" departPos="random" departSpeed="max" arrivalPos="random" arrivalSpeed="0.00" departLane="best">
        <route edges="-32850 -31890" />
    </vehicle>
    <vehicle id="c1h46549c1:3" type="passenger5" depart="185.00" departPos="random" departSpeed="max" arrivalPos="random" arrivalSpeed="0.00" departLane="best">
        <route edges="-32410#0 -32410#1" />
    </vehicle>
    <vehicle id="h14252c2:3" type="passenger3" depart="185.00" departPos="random" departSpeed="max" arrivalPos="random" arrivalSpeed="0.00" departLane="best">
        <route edges="-32850 -31890" />
    </vehicle>
    <vehicle id="h46549c1:3" type="passenger3" depart="185.00" departPos="random" departSpeed="max" arrivalPos="random" arrivalSpeed="0.00" departLane="best">
        <route edges="-32410#0 -32410#1" />
    </vehicle>
    <vehicle id="c1h70929c1:3" type="passenger2a" depart="191.00" departPos="random" departSpeed="max" arrivalPos="random" arrivalSpeed="0.00" departLane="best">
        <route edges="-32410#0 -32410#1" />
    </vehicle>
    <vehicle id="h70929c1:3" type="passenger1" depart="191.00" departPos="random" departSpeed="max" arrivalPos="random" arrivalSpeed="0.00" departLane="best">
        <route edges="-32410#0 -32410#1" />
    </vehicle>
    <vehicle id="c1h27645c1:3" type="passenger1" depart="194.00" departPos="random" departSpeed="max" arrivalPos="random" arrivalSpeed="0.00" departLane="best">
        <route edges="-32850 -31890" />
    </vehicle>
    <vehicle id="c1h29966c1:3" type="passenger1" depart="194.00" departPos="random" departSpeed="max" arrivalPos="random" arrivalSpeed="0.00" departLane="best">
        <route edges="-32850 -31890" />
    </vehicle>
    <vehicle id="c1h71860c1:3" type="passenger1" depart="194.00" departPos="random" departSpeed="max" arrivalPos="random" arrivalSpeed="0.00" departLane="best">
        <route edges="--32410#1 --32410#0" />
    </vehicle>
    <vehicle id="h27645c1:3" type="passenger1" depart="194.00" departPos="random" departSpeed="max" arrivalPos="random" arrivalSpeed="0.00" departLane="best">
        <route edges="-32850 -31890" />
    </vehicle>
    <vehicle id="h29966c1:3" type="passenger4" depart="194.00" departPos="random" departSpeed="max" arrivalPos="random" arrivalSpeed="0.00" departLane="best">
        <route edges="-32850 -31890" />
    </vehicle>
    <vehicle id="h71860c1:3" type="passenger2a" depart="194.00" departPos="random" departSpeed="max" arrivalPos="random" arrivalSpeed="0.00" departLane="best">
        <route edges="--32410#1 --32410#0" />
    </vehicle>
    <vehicle id="nrh01c1h29966c1:3" type="passenger1" depart="194.00" departPos="random" departSpeed="max" arrivalPos="random" arrivalSpeed="0.00" departLane="best">
        <route edges="-32850 -31890" />
    </vehicle>
    <vehicle id="c1h27468c1:3" type="passenger1" depart="197.00" departPos="random" departSpeed="max" arrivalPos="random" arrivalSpeed="0.00" departLane="best">
        <route edges="-32850 -31890" />
    </vehicle>
    <vehicle id="h27468c1:3" type="passenger2b" depart="197.00" departPos="random" departSpeed="max" arrivalPos="random" arrivalSpeed="0.00" departLane="best">
        <route edges="-32850 -31890" />
    </vehicle>