<?xml version="1.0" encoding="UTF-8"?>
<!-- Monaco junction 134872 (held-out cross-city test). route-files je placeholder,
     evaluacny skript podava skutocny -r za behu. -->
<sumoConfiguration xmlns:xsi="http://www.w3.org/2001/XMLSchema-instance" xsi:noNamespaceSchemaLocation="http://sumo.dlr.de/xsd/sumoConfiguration.xsd">
    <input>
        <net-file value="Monaco.net.xml"/>
        <route-files value="Monaco-placeholder.rou.xml"/>
    </input>
</sumoConfiguration>
