<?xml version="1.0" encoding="UTF-8"?>

<!-- generated on 2026-06-16T16:50:43.394886+00:00 by Eclipse SUMO netconvert 1.27.0
<netconvertConfiguration xmlns:xsi="http://www.w3.org/2001/XMLSchema-instance" xsi:noNamespaceSchemaLocation="http://sumo.dlr.de/xsd/netconvertConfiguration.xsd">

    <input>
        <sumo-net-file value="in/most.net.xml"/>
    </input>

    <output>
        <output-file value="/tmp/monaco/intersection_134872.net.xml"/>
    </output>

    <processing>
        <geometry.min-radius.fix.railways value="false"/>
        <geometry.avoid-overlap value="false"/>
        <geometry.max-grade.fix value="false"/>
        <offset.disable-normalization value="true"/>
    </processing>

    <edge_removal>
        <keep-edges.in-boundary value="9683,4959,9983,5259"/>
    </edge_removal>

    <junctions>
        <no-turnarounds value="true"/>
        <junctions.limit-turn-speed value="1.00"/>
    </junctions>

    <pedestrian>
        <walkingareas value="1"/>
    </pedestrian>

</netconvertConfiguration>
-->

<net version="1.20" junctionCornerDetail="5" walkingareas="true" limitTurnSpeed="1.00" avoidOverlap="0" xmlns:xsi="http://www.w3.org/2001/XMLSchema-instance" xsi:noNamespaceSchemaLocation="http://sumo.dlr.de/xsd/net_file.xsd">

    <location netOffset="-368142.40,-4841896.61" convBoundary="0.00,122.43,9975.22,5225.30" origBoundary="7.362913,43.718985,7.485778,43.776857" projParameter="+proj=utm +zone=32 +ellps=WGS84 +datum=WGS84 +units=m +no_defs"/>

    <type id="highway.primary" priority="9" numLanes="2" speed="13.89" disallow="pedestrian bicycle tram rail_urban rail rail_electric ship" oneway="0" sidewalkWidth="2.00"/>
    <type id="highway.tertiary" priority="6" numLanes="1" speed="13.89" disallow="pedestrian tram rail_urban rail rail_electric ship" oneway="0" sidewalkWidth="1.50"/>
    <type id="railway.rail" priority="15" numLanes="1" speed="83.33" allow="rail rail_electric" oneway="0"/>

    <edge id=":134872_0" function="internal">
        <lane id=":134872_0_0" index="0" disallow="pedestrian tram rail_urban rail rail_electric ship cable_car subway" speed="3.32" length="11.89" shape="9838.36,5117.46,9.73 9835.53,5115.20,9.72 9832.57,5114.52,9.71 9829.50,5115.43,9.71 9827.90,5116.69,9.70"/>
    </edge>
    <edge id=":134872_1" function="internal">
        <lane id=":134872_1_0" index="0" disallow="pedestrian bicycle tram rail_urban rail rail_electric ship cable_car subway" speed="13.89" length="17.26" shape="9838.36,5117.46,9.73 9834.92,5113.66,9.68 9832.50,5111.12,9.65 9829.90,5108.77,9.62 9825.94,5105.52,9.58"/>
    </edge>
    <edge id=":134872_7" function="internal">
        <lane id=":134872_7_0" index="0" disallow="pedestrian tram rail_urban rail rail_electric ship cable_car subway" speed="3.32" length="2.02" shape="9827.90,5116.69,9.70 9826.31,5117.93,9.70"/>
    </edge>
    <edge id=":134872_2" function="internal">
        <lane id=":134872_2_0" index="0" disallow="pedestrian bicycle tram rail_urban rail rail_electric ship cable_car subway" speed="2.78" length="6.30" shape="9840.31,5107.86,9.53 9839.16,5109.65,9.58 9838.85,5111.49,9.63 9839.37,5113.38,9.67 9839.57,5113.66,9.68"/>
    </edge>
    <edge id=":134872_3" function="internal">
        <lane id=":134872_3_0" index="0" disallow="pedestrian bicycle tram rail_urban rail rail_electric ship cable_car subway" speed="13.89" length="17.35" shape="9840.31,5107.86,9.53 9836.56,5111.29,9.58 9833.44,5113.01,9.61 9830.25,5114.68,9.65 9826.31,5117.93,9.70"/>
    </edge>
    <edge id=":134872_4" function="internal">
        <lane id=":134872_4_0" index="0" disallow="pedestrian bicycle tram rail_urban rail rail_electric ship cable_car subway" speed="3.39" length="11.46" shape="9837.91,5105.74,9.53 9835.34,5107.78,9.54 9832.49,5108.43,9.55 9829.35,5107.68,9.56 9827.64,5106.60,9.57"/>
    </edge>
    <edge id=":134872_8" function="internal">
        <lane id=":134872_8_0" index="0" disallow="pedestrian bicycle tram rail_urban rail rail_electric ship cable_car subway" speed="2.78" length="2.02" shape="9839.57,5113.66,9.68 9840.73,5115.31,9.73"/>
    </edge>
    <edge id=":134872_9" function="internal">
        <lane id=":134872_9_0" index="0" disallow="pedestrian bicycle tram rail_urban rail rail_electric ship cable_car subway" speed="3.39" length="2.01" shape="9827.64,5106.60,9.57 9825.94,5105.52,9.58"/>
    </edge>
    <edge id=":134872_5" function="internal">
        <lane id=":134872_5_0" index="0" disallow="pedestrian bicycle tram rail_urban rail rail_electric ship cable_car subway" speed="2.67" length="6.93" shape="9824.04,5115.68,9.70 9825.60,5113.61,9.67 9826.10,5111.65,9.64 9825.55,5109.78,9.61 9825.30,5109.51,9.61"/>
    </edge>
    <edge id=":134872_6" function="internal">
        <lane id=":134872_6_0" index="0" disallow="pedestrian tram rail_urban rail rail_electric ship cable_car subway" speed="3.87" length="17.24" shape="9824.04,5115.68,9.70 9828.41,5112.29,9.71 9832.65,5111.10,9.71 9836.75,5112.10,9.72 9839.15,5114.04,9.73"/>
    </edge>
    <edge id=":134872_10" function="internal">
        <lane id=":134872_10_0" index="0" disallow="pedestrian bicycle tram rail_urban rail rail_electric ship cable_car subway" speed="2.67" length="2.02" shape="9825.30,5109.51,9.61 9823.93,5108.02,9.58"/>
    </edge>
    <edge id=":134872_11" function="internal">
        <lane id=":134872_11_0" index="0" disallow="pedestrian tram rail_urban rail rail_electric ship cable_car subway" speed="3.87" length="2.02" shape="9839.15,5114.04,9.73 9840.73,5115.31,9.73"/>
    </edge>
    <edge id=":134872_c0" function="crossing" crossingEdges="S1_out S1_in">
        <lane id=":134872_c0_0" index="0" allow="pedestrian" speed="2.78" length="6.40" width="2.00" shape="9841.24,5113.49,9.73 9836.50,5117.80,9.73" outlineShape="9841.91,5114.23,9.73 9837.18,5118.54,9.73 9837.10,5118.60,9.73 9837.18,5118.54,9.73 9835.68,5117.20,9.72 9840.80,5112.54,9.73 9841.18,5113.29,9.69"/>
    </edge>
    <edge id=":134872_c1" function="crossing" crossingEdges="W1_in">
        <lane id=":134872_c1_0" index="0" allow="pedestrian" speed="2.78" length="6.40" width="2.00" shape="9836.05,5105.43,9.56 9840.84,5109.67,9.56" outlineShape="9836.71,5104.68,9.56 9841.51,5108.92,9.56 9841.58,5108.99,9.53 9841.50,5108.92,9.53 9840.91,5109.75,9.56 9840.58,5110.60,9.59 9840.57,5110.75,9.60 9835.16,5105.97,9.56 9835.37,5105.88,9.54"/>
    </edge>
    <edge id=":134872_c2" function="crossing" crossingEdges="N1_out">
        <lane id=":134872_c2_0" index="0" allow="pedestrian" speed="2.78" length="6.40" width="2.00" shape="9823.71,5109.89,9.59 9827.72,5104.90,9.60" outlineShape="9822.93,5109.26,9.59 9826.94,5104.27,9.60 9827.00,5104.20,9.58 9826.94,5104.27,9.58 9828.59,5105.42,9.57 9824.21,5110.87,9.59 9823.74,5110.06,9.60"/>
    </edge>
    <edge id=":134872_c3" function="crossing" crossingEdges="E1_out E1_in">
        <lane id=":134872_c3_0" index="0" allow="pedestrian" speed="2.78" length="6.40" width="2.00" shape="9828.15,5118.34,9.70 9823.60,5113.84,9.70" outlineShape="9827.45,5119.05,9.70 9822.90,5114.55,9.70 9822.83,5114.48,9.70 9822.90,5114.55,9.70 9823.71,5113.58,9.68 9824.07,5112.90,9.66 9828.97,5117.74,9.70 9827.45,5119.05,9.70 9828.52,5120.11,9.70 9836.07,5119.54,9.73 9837.18,5118.54,9.73 9835.68,5117.20,9.72 9834.13,5116.43,9.72 9832.54,5116.24,9.71 9830.89,5116.61,9.71 9829.20,5117.55,9.71 9828.97,5117.74,9.71"/>
    </edge>
    <edge id=":134872_w0" function="walkingarea">
        <lane id=":134872_w0_0" index="0" allow="pedestrian" speed="2.78" length="6.12" width="2.00" shape="9827.45,5119.05,9.70 9828.52,5120.11,9.70 9836.07,5119.54,9.73 9837.18,5118.54,9.73 9835.68,5117.20,9.72 9834.13,5116.43,9.72 9832.54,5116.24,9.71 9830.89,5116.61,9.71 9829.20,5117.55,9.71"/>
    </edge>
    <edge id=":134872_w1" function="walkingarea">
        <lane id=":134872_w1_0" index="0" allow="pedestrian" speed="2.78" length="3.18" width="2.00" shape="9841.91,5114.23,9.73 9843.02,5113.22,9.73 9843.00,5110.24,9.53 9841.50,5108.92,9.53 9840.91,5109.75,9.56 9840.58,5110.60,9.59 9840.52,5111.48,9.62 9840.72,5112.37,9.65 9841.18,5113.29,9.69"/>
    </edge>
    <edge id=":134872_w2" function="walkingarea">
        <lane id=":134872_w2_0" index="0" allow="pedestrian" speed="2.78" length="6.10" width="2.00" shape="9836.71,5104.68,9.53 9835.21,5103.35,9.53 9828.19,5102.72,9.58 9826.94,5104.27,9.58 9828.86,5105.61,9.57 9830.66,5106.43,9.56 9832.34,5106.75,9.55 9833.91,5106.57,9.54 9835.37,5105.88,9.54"/>
    </edge>
    <edge id=":134872_w3" function="walkingarea">
        <lane id=":134872_w3_0" index="0" allow="pedestrian" speed="2.78" length="3.16" width="2.00" shape="9822.93,5109.26,9.58 9821.68,5110.82,9.58 9821.83,5113.50,9.70 9822.90,5114.55,9.70 9823.71,5113.58,9.68 9824.20,5112.65,9.65 9824.37,5111.75,9.64 9824.22,5110.89,9.62 9823.74,5110.06,9.60"/>
    </edge>
    <edge id=":135678_0" function="internal">
        <lane id=":135678_0_0" index="0" disallow="pedestrian bicycle tram rail_urban rail rail_electric ship cable_car subway" speed="2.51" length="12.09" shape="9666.16,4959.65,13.65 9665.16,4955.80,13.64 9665.70,4953.80,13.64 9667.77,4953.63,13.63 9671.37,4955.30,13.62"/>
    </edge>
    <edge id=":135678_c0" function="crossing" crossingEdges="N1_out">
        <lane id=":135678_c0_0" index="0" allow="pedestrian" speed="2.78" length="6.40" width="2.00" shape="9667.31,4958.15,13.68 9661.31,4960.38,13.67" outlineShape="9667.66,4959.09,13.68 9661.66,4961.32,13.67 9661.57,4961.35,13.65 9661.66,4961.32,13.65 9661.62,4959.20,13.64 9667.16,4957.14,13.68 9667.20,4957.55,13.64"/>
    </edge>
    <edge id=":135678_c1" function="crossing" crossingEdges="153353">
        <lane id=":135678_c1_0" index="0" allow="pedestrian" speed="2.78" length="6.40" width="2.00" shape="9672.96,4950.66,13.65 9669.70,4956.17,13.65" outlineShape="9673.82,4951.17,13.65 9670.56,4956.68,13.65 9670.50,4956.76,13.62 9670.56,4956.67,13.62 9669.13,4955.94,13.63 9668.73,4955.84,13.63 9671.74,4950.75,13.65"/>
    </edge>
    <edge id=":135678_w0" function="walkingarea">
        <lane id=":135678_w0_0" index="0" allow="pedestrian" speed="2.78" length="11.44" width="2.00" shape="9673.82,4951.17,13.62 9674.84,4949.45,13.62 9671.61,4948.80,13.62 9667.93,4949.86,13.63 9664.35,4952.18,13.63 9661.43,4955.29,13.64 9659.72,4958.72,13.64 9659.79,4962.01,13.65 9661.66,4961.32,13.65 9661.61,4958.66,13.64 9662.99,4955.89,13.64 9665.35,4953.38,13.63 9668.24,4951.50,13.63 9671.21,4950.64,13.62"/>
    </edge>
    <edge id=":135678_w1" function="walkingarea">
        <lane id=":135678_w1_0" index="0" allow="pedestrian" speed="2.78" length="2.24" width="2.00" shape="9667.66,4959.09,13.65 9669.54,4958.40,13.65 9670.56,4956.67,13.62 9669.13,4955.94,13.63 9668.08,4955.67,13.63 9667.40,4955.84,13.64 9667.11,4956.47,13.64 9667.20,4957.55,13.64"/>
    </edge>
    <edge id=":139306_0" function="internal">
        <lane id=":139306_0_0" index="0" disallow="pedestrian tram rail_urban rail rail_electric ship cable_car subway" speed="1.56" length="4.67" shape="9758.10,5169.85,10.30 9756.71,5169.44,10.30 9756.09,5168.80,10.30 9756.24,5167.91,10.30 9757.14,5166.79,10.30"/>
    </edge>
    <edge id=":139306_w0" function="walkingarea">
        <lane id=":139306_w0_0" index="0" allow="pedestrian" speed="2.78" length="7.90" width="1.50" shape="9756.67,5165.27,10.30 9756.22,5163.83,10.30 9759.02,5172.81,10.30 9758.57,5171.37,10.30"/>
    </edge>
    <edge id=":140480_0" function="internal">
        <lane id=":140480_0_0" index="0" disallow="pedestrian tram rail_urban rail rail_electric ship cable_car subway" speed="1.56" length="4.67" shape="9972.88,5224.47,10.00 9972.82,5225.91,10.00 9972.34,5226.67,10.00 9971.45,5226.74,10.00 9970.14,5226.13,10.00"/>
    </edge>
    <edge id=":140480_w0" function="walkingarea">
        <lane id=":140480_w0_0" index="0" allow="pedestrian" speed="2.78" length="7.90" width="1.50" shape="9968.78,5226.96,10.00 9967.49,5227.74,10.00 9975.53,5222.86,10.00 9974.24,5223.64,10.00"/>
    </edge>
    <edge id=":147962_w0" function="walkingarea">
        <lane id=":147962_w0_0" index="0" allow="pedestrian" speed="2.78" length="8.40" width="2.00" shape="9970.06,4999.37,5.20 9969.68,5001.33,5.20 9971.66,4991.12,5.20 9971.28,4993.09,5.20"/>
    </edge>
    <edge id=":148820_w0" function="walkingarea">
        <lane id=":148820_w0_0" index="0" allow="pedestrian" speed="2.78" length="8.40" width="2.00" shape="9973.23,5079.44,5.60 9972.61,5081.35,5.60 9975.84,5071.46,5.60 9975.22,5073.36,5.60"/>
    </edge>

    <edge id="-152191" from="134357" to="136092" priority="15" type="railway.rail" shape="9914.38,5042.37 9902.87,5027.05 9879.86,4996.52 9867.45,4979.53 9632.61,4657.13 9618.02,4638.89 9609.60,4626.99 9467.81,4432.89 9457.62,4419.30 9407.12,4350.92 9285.20,4180.97 9267.64,4166.22 9217.15,4121.95 9156.89,4086.68 9096.75,4058.73 9027.05,4038.70 8899.59,4025.78 8845.46,4030.44 8781.57,4044.31 8687.62,4080.26 8506.28,4178.33 8423.76,4224.20 8381.64,4248.21 8347.59,4275.54 8298.33,4321.01 8193.79,4449.69 8159.99,4490.51 8127.04,4518.54 8098.69,4538.66 8067.47,4555.80 8035.76,4570.15 8004.64,4579.79 7956.46,4590.79 7926.92,4593.71 7899.07,4594.45 7862.51,4591.45 7803.53,4578.36 7690.39,4545.38 7537.05,4500.02 7430.62,4468.01 7388.37,4450.06 7343.20,4425.08 7290.51,4379.57 7244.49,4320.60 7204.09,4262.59 7178.33,4221.07 7122.97,4077.66 7092.31,4024.19 7054.70,3977.83 7006.95,3931.36 6979.29,3907.14 6950.53,3883.30 6916.82,3859.42 6806.68,3779.28 6763.21,3753.62 6707.66,3728.83 6658.52,3711.68 6352.22,3631.54 6272.15,3624.00 6082.86,3621.12 6011.41,3612.13 5866.00,3564.73 5721.52,3475.32 5549.15,3339.95 5430.05,3221.65 5217.86,2980.48 5126.73,2857.56 4863.02,2447.70 4813.11,2362.42 4747.51,2270.56 4691.37,2192.54 4649.59,2153.17 4629.58,2136.99 4567.85,2093.95 4540.36,2073.64 4513.87,2051.59 4494.10,2037.07 4315.12,1878.11 4187.18,1786.46 4125.35,1706.46 4097.67,1659.83 4070.05,1605.88 4049.58,1518.21 4033.20,1373.82 3997.18,1117.82 3943.09,934.31 3865.69,763.50 3769.91,513.38 3754.73,465.43 3743.40,393.70 3731.66,367.02 3718.93,346.36 3703.83,325.54 3684.04,307.82 3667.67,298.46 3646.13,291.76 3496.67,274.18 3446.98,275.78 3247.22,296.11 3179.43,296.99 3115.65,286.89 3026.51,270.96 2981.28,257.18 2938.38,239.71 2851.40,201.54 2736.00,168.24 2700.64,162.45 2654.37,161.19 2584.29,168.81 2520.23,187.06 2472.41,206.94 2429.91,233.60 2315.90,361.60 2252.42,442.94 2220.45,476.74 2180.90,510.25 2151.40,527.61 2033.46,563.72 1922.99,572.97 1785.71,560.35 1647.84,527.51 1533.08,483.44 1486.85,462.38 1433.66,428.10 1389.96,392.55 1348.63,357.82 1299.15,313.57 1255.29,281.04 1215.56,249.94 1085.10,166.76 1054.96,150.35 987.15,131.64 897.07,122.43 742.19,127.61 560.19,171.69 524.74,181.65 481.32,193.70 433.87,210.36 397.45,227.22 370.77,244.55 338.38,266.95 315.01,287.65 278.53,326.03 214.69,390.58 190.56,411.15 167.33,427.33 137.61,443.64 106.55,457.39 76.46,467.02 54.74,472.18 21.92,477.39 0.00,479.53">
        <lane id="-152191_0" index="0" allow="rail rail_electric rail_fast" speed="25.00" length="13236.71" shape="9913.10,5043.33 9901.59,5028.01 9878.58,4997.47 9866.16,4980.47 9631.34,4658.10 9616.74,4639.85 9608.30,4627.92 9466.52,4433.84 9456.34,4420.26 9405.83,4351.86 9284.02,4182.07 9266.60,4167.43 9216.21,4123.25 9156.15,4088.10 9096.19,4060.23 9026.75,4040.28 8899.58,4027.39 8845.70,4032.03 8782.03,4045.85 8688.29,4081.72 8507.05,4179.73 8424.54,4225.59 8382.54,4249.54 8348.63,4276.75 8299.50,4322.11 8195.03,4450.70 8161.13,4491.64 8128.02,4519.80 8099.54,4540.02 8068.19,4557.23 8036.33,4571.65 8005.06,4581.34 7956.72,4592.37 7927.02,4595.31 7899.03,4596.05 7862.27,4593.04 7803.13,4579.91 7689.94,4546.92 7536.59,4501.55 7430.08,4469.52 7387.67,4451.50 7342.28,4426.40 7289.35,4380.68 7243.20,4321.55 7202.75,4263.47 7176.89,4221.79 7121.52,4078.35 7090.99,4025.10 7053.52,3978.91 7005.86,3932.54 6978.25,3908.36 6949.56,3884.57 6915.89,3860.72 6805.80,3780.62 6762.47,3755.04 6707.07,3730.32 6658.05,3713.21 6351.94,3633.12 6272.06,3625.60 6082.75,3622.72 6011.06,3613.70 5865.32,3566.19 5720.60,3476.63 5548.09,3341.15 5428.88,3222.75 5216.61,2981.49 5125.41,2858.47 4861.66,2448.54 4811.77,2363.29 4746.21,2271.49 4690.16,2193.60 4648.54,2154.38 4628.62,2138.27 4566.92,2095.25 4539.37,2074.90 4512.88,2052.85 4493.09,2038.32 4314.12,1879.36 4186.06,1787.62 4124.02,1707.36 4096.27,1660.60 4068.54,1606.43 4048.00,1518.48 4031.61,1374.02 3995.61,1118.16 3941.59,934.87 3864.21,764.12 3768.40,513.91 3753.17,465.80 3741.85,394.15 3730.24,367.77 3717.60,347.25 3702.64,326.62 3683.10,309.12 3667.03,299.94 3645.80,293.33 3496.60,275.78 3447.09,277.38 3247.31,297.71 3179.31,298.59 3115.38,288.47 3026.13,272.52 2980.74,258.69 2937.76,241.18 2850.85,203.05 2735.65,169.80 2700.49,164.05 2654.43,162.79 2584.60,170.39 2520.76,188.57 2473.15,208.37 2430.95,234.83 2317.13,362.63 2253.63,443.98 2221.55,477.90 2181.83,511.56 2152.05,529.08 2033.76,565.30 1922.98,574.58 1785.45,561.93 1647.37,529.04 1532.46,484.92 1486.08,463.79 1432.72,429.40 1388.94,393.78 1347.58,359.03 1298.14,314.81 1254.32,282.31 1214.63,251.25 1084.29,168.14 1054.36,151.84 986.85,133.22 897.02,124.03 742.41,129.20 560.59,173.24 525.17,183.19 481.80,195.23 434.47,211.84 398.23,228.62 371.66,245.88 339.37,268.21 316.12,288.80 279.68,327.14 215.78,391.75 191.54,412.42 168.17,428.69 138.32,445.08 107.12,458.89 76.89,468.56 55.05,473.75 22.12,478.98 0.16,481.12"/>
        <param key="railway:track_ref" value="2"/>
    </edge>
    <edge id="W1_out" from="134872" to="148820" priority="9" type="highway.primary" shape="9832.86,5109.03,9.70 9846.16,5094.00,9.10 9854.29,5080.86,8.80 9865.81,5062.15,8.40 9880.04,5046.04,7.40 9886.68,5041.03,6.90 9897.29,5036.82,6.50 9904.19,5035.21,5.50 9907.65,5034.92,4.90 9909.90,5035.17,4.90 9916.41,5036.48,5.00 9933.51,5049.24,5.20 9944.97,5060.30,5.30 9955.07,5066.76,5.40 9966.49,5070.51,5.80 9975.22,5073.36,5.60">
        <lane id="W1_out_0" index="0" allow="pedestrian" speed="13.89" length="184.18" width="2.00" shape="9835.96,5104.01,9.53 9845.35,5093.40,9.10 9853.44,5080.33,8.80 9865.00,5061.55,8.40 9879.36,5045.30,7.40 9886.19,5040.15,6.90 9896.99,5035.86,6.50 9904.03,5034.22,5.50 9907.66,5033.92,4.90 9910.05,5034.18,4.90 9916.83,5035.54,5.00 9934.16,5048.48,5.20 9945.59,5059.51,5.30 9955.50,5065.85,5.40 9966.80,5069.56,5.80 9975.53,5072.41,5.60"/>
    </edge>
    <edge id="N1_in" from="135678" to="134872" priority="9" type="highway.primary" shape="9665.70,4953.80,13.80 9669.10,4962.97,13.54 9670.36,4967.14,13.10 9671.62,4971.30,13.10 9677.77,4984.97,12.90 9708.02,5032.62,11.30 9709.83,5035.39,11.30 9717.51,5046.93,11.30 9720.45,5051.33,11.40 9725.03,5054.90,11.00 9737.87,5061.75,11.05 9751.44,5068.94,10.50 9764.00,5073.31,10.40 9767.60,5074.45,10.30 9800.08,5085.23,9.20 9807.99,5089.05,9.20 9832.86,5109.03,9.70">
        <lane id="N1_in_0" index="0" allow="pedestrian" speed="13.89" length="226.39" width="2.00" shape="9668.60,4958.74,13.65 9670.05,4962.65,13.54 9671.32,4966.85,13.10 9672.56,4970.95,13.10 9678.65,4984.49,12.90 9708.86,5032.08,11.30 9710.66,5034.84,11.30 9718.34,5046.38,11.30 9721.19,5050.64,11.40 9725.58,5054.06,11.00 9738.34,5060.87,11.05 9751.84,5068.02,10.50 9764.32,5072.36,10.40 9767.91,5073.50,10.30 9800.46,5084.30,9.20 9808.53,5088.20,9.20 9827.57,5103.49,9.58"/>
    </edge>
    <edge id="S1_out" from="134872" to="140480" priority="6" type="highway.tertiary" shape="9832.86,5109.03,9.70 9856.57,5135.11,9.80 9864.03,5145.08,10.00 9867.16,5146.65,10.00 9871.43,5148.83,10.10 9886.55,5153.91,10.00 9900.22,5158.29,10.00 9910.80,5163.11,10.10 9928.88,5171.58,10.40 9940.28,5180.55,9.80 9951.61,5192.53,9.90 9953.78,5196.16,9.90 9971.51,5225.30,10.00">
        <lane id="S1_out_0" index="0" allow="pedestrian" speed="13.89" length="177.82" width="1.50" shape="9842.47,5113.73,9.73 9859.62,5132.59,9.80 9866.63,5141.97,10.00 9868.95,5143.13,10.00 9872.97,5145.18,10.10 9887.78,5150.16,10.00 9901.65,5154.60,10.00 9912.46,5159.52,10.10 9930.97,5168.20,10.40 9942.95,5177.63,9.80 9954.78,5190.13,9.90 9957.16,5194.12,9.90 9974.88,5223.25,10.00"/>
        <lane id="S1_out_1" index="1" disallow="pedestrian tram rail_urban rail rail_electric ship cable_car subway" speed="13.89" length="177.82" shape="9840.73,5115.31,9.73 9857.81,5134.09,9.80 9865.08,5143.82,10.00 9867.88,5145.22,10.00 9872.05,5147.35,10.10 9887.05,5152.39,10.00 9900.80,5156.79,10.00 9911.47,5161.66,10.10 9929.73,5170.21,10.40 9941.36,5179.37,9.80 9952.89,5191.56,9.90 9955.15,5195.33,9.90 9972.88,5224.47,10.00"/>
    </edge>
    <edge id="E1_out" from="134872" to="139306" priority="6" type="highway.tertiary" shape="9832.86,5109.03,9.70 9821.39,5120.63,9.70 9799.37,5143.63,9.40 9797.23,5145.90,9.40 9789.46,5153.20,9.70 9776.62,5162.39,10.40 9757.62,5168.32,10.30">
        <lane id="E1_out_0" index="0" allow="pedestrian" speed="13.89" length="88.08" width="1.50" shape="9827.98,5119.58,9.70 9824.22,5123.38,9.70 9802.23,5146.36,9.40 9800.02,5148.70,9.40 9791.97,5156.26,9.70 9778.40,5165.97,10.40 9758.80,5172.09,10.30"/>
        <lane id="E1_out_1" index="1" disallow="pedestrian tram rail_urban rail rail_electric ship cable_car subway" speed="13.89" length="88.08" shape="9826.31,5117.93,9.70 9822.54,5121.75,9.70 9800.53,5144.74,9.40 9798.36,5147.03,9.40 9790.48,5154.44,9.70 9777.34,5163.84,10.40 9758.10,5169.85,10.30"/>
    </edge>
    <edge id="-153353" from="147962" to="135678" priority="9" type="highway.primary" shape="9970.06,4999.37,5.20 9925.80,4990.77,6.20 9900.16,4988.30,8.00 9898.03,4988.05,6.70 9878.39,4988.13,7.00 9870.56,4989.31,7.60 9866.56,4989.74,7.80 9863.32,4990.26,8.30 9851.96,4989.91,8.00 9827.96,4989.32,9.10 9794.62,4988.62,9.70 9782.47,4988.33,10.00 9757.59,4985.38,10.00 9751.21,4984.56,10.00 9736.85,4981.53,11.00 9720.54,4976.54,11.60 9712.73,4974.02,11.80 9694.15,4968.30,13.10 9678.93,4961.12,13.02 9674.72,4959.14,13.47 9665.70,4953.80,13.80">
        <lane id="-153353_0" index="0" allow="pedestrian" speed="13.89" length="306.92" width="2.00" shape="9969.87,5000.35,5.20 9925.66,4991.76,6.20 9900.06,4989.30,8.00 9897.97,4989.05,6.70 9878.47,4989.13,7.00 9870.69,4990.30,7.60 9866.69,4990.73,7.80 9863.38,4991.26,8.30 9851.93,4990.91,8.00 9827.94,4990.32,9.10 9794.60,4989.62,9.70 9782.40,4989.33,10.00 9757.47,4986.37,10.00 9751.04,4985.55,10.00 9736.60,4982.50,11.00 9720.24,4977.49,11.60 9712.43,4974.97,11.80 9693.79,4969.23,13.10 9678.50,4962.02,13.02 9674.25,4960.02,13.47 9670.05,4957.54,13.62"/>
    </edge>
    <edge id="152193" from="136092" to="134357" priority="15" type="railway.rail" shape="0.00,479.53 21.92,477.39 54.74,472.18 76.46,467.02 106.55,457.39 137.61,443.64 167.33,427.33 190.56,411.15 214.69,390.58 278.53,326.03 315.01,287.65 338.38,266.95 370.77,244.55 397.45,227.22 433.87,210.36 481.32,193.70 524.74,181.65 560.19,171.69 742.19,127.61 897.07,122.43 987.15,131.64 1054.96,150.35 1085.10,166.76 1215.56,249.94 1255.29,281.04 1299.15,313.57 1348.63,357.82 1389.96,392.55 1433.66,428.10 1486.85,462.38 1533.08,483.44 1647.84,527.51 1785.71,560.35 1922.99,572.97 2033.46,563.72 2151.40,527.61 2180.90,510.25 2220.45,476.74 2252.42,442.94 2315.90,361.60 2429.91,233.60 2472.41,206.94 2520.23,187.06 2584.29,168.81 2654.37,161.19 2700.64,162.45 2736.00,168.24 2851.40,201.54 2938.38,239.71 2981.28,257.18 3026.51,270.96 3115.65,286.89 3179.43,296.99 3247.22,296.11 3446.98,275.78 3496.67,274.18 3646.13,291.76 3667.67,298.46 3684.04,307.82 3703.83,325.54 3718.93,346.36 3731.66,367.02 3743.40,393.70 3754.73,465.43 3769.91,513.38 3865.69,763.50 3943.09,934.31 3997.18,1117.82 4033.20,1373.82 4049.58,1518.21 4070.05,1605.88 4097.67,1659.83 4125.35,1706.46 4187.18,1786.46 4315.12,1878.11 4494.10,2037.07 4513.87,2051.59 4540.36,2073.64 4567.85,2093.95 4629.58,2136.99 4649.59,2153.17 4691.37,2192.54 4747.51,2270.56 4813.11,2362.42 4863.02,2447.70 5126.73,2857.56 5217.86,2980.48 5430.05,3221.65 5549.15,3339.95 5721.52,3475.32 5866.00,3564.73 6011.41,3612.13 6082.86,3621.12 6272.15,3624.00 6352.22,3631.54 6658.52,3711.68 6707.66,3728.83 6763.21,3753.62 6806.68,3779.28 6916.82,3859.42 6950.53,3883.30 6979.29,3907.14 7006.95,3931.36 7054.70,3977.83 7092.31,4024.19 7122.97,4077.66 7178.33,4221.07 7204.09,4262.59 7244.49,4320.60 7290.51,4379.57 7343.20,4425.08 7388.37,4450.06 7430.62,4468.01 7537.05,4500.02 7690.39,4545.38 7803.53,4578.36 7862.51,4591.45 7899.07,4594.45 7926.92,4593.71 7956.46,4590.79 8004.64,4579.79 8035.76,4570.15 8067.47,4555.80 8098.69,4538.66 8127.04,4518.54 8159.99,4490.51 8193.79,4449.69 8298.33,4321.01 8347.59,4275.54 8381.64,4248.21 8423.76,4224.20 8506.28,4178.33 8687.62,4080.26 8781.57,4044.31 8845.46,4030.44 8899.59,4025.78 9027.05,4038.70 9096.75,4058.73 9156.89,4086.68 9217.15,4121.95 9267.64,4166.22 9285.20,4180.97 9407.12,4350.92 9457.62,4419.30 9467.81,4432.89 9609.60,4626.99 9618.02,4638.89 9632.61,4657.13 9867.45,4979.53 9879.86,4996.52 9902.87,5027.05 9914.38,5042.37">
        <lane id="152193_0" index="0" allow="rail rail_electric rail_fast" speed="25.00" length="13240.00" shape="-0.16,477.94 21.72,475.80 54.43,470.61 76.03,465.48 105.98,455.89 136.90,442.20 166.49,425.97 189.58,409.88 213.60,389.41 277.38,324.92 313.90,286.50 337.39,265.69 369.88,243.22 396.67,225.82 433.27,208.88 480.84,192.17 524.31,180.11 559.79,170.14 741.97,126.02 897.12,120.83 987.45,130.06 1055.56,148.86 1085.91,165.38 1216.49,248.63 1256.26,279.77 1300.16,312.33 1349.68,356.61 1390.98,391.32 1434.60,426.80 1487.62,460.97 1533.70,481.96 1648.31,525.98 1785.97,558.77 1923.00,571.36 2033.16,562.14 2150.75,526.14 2179.97,508.94 2219.35,475.58 2251.21,441.90 2314.67,360.57 2428.87,232.37 2471.67,205.51 2519.70,185.55 2583.98,167.23 2654.31,159.59 2700.79,160.85 2736.35,166.68 2851.95,200.03 2939.00,238.24 2981.82,255.67 3026.89,269.40 3115.92,285.31 3179.55,295.39 3247.13,294.51 3446.87,274.18 3496.74,272.58 3646.46,290.19 3668.31,296.98 3684.98,306.52 3705.02,324.46 3720.26,345.47 3733.08,366.27 3744.95,393.25 3756.29,465.06 3771.42,512.85 3867.17,762.88 3944.59,933.75 3998.75,1117.48 4034.79,1373.62 4051.16,1517.94 4071.56,1605.33 4099.07,1659.06 4126.68,1705.56 4188.30,1785.30 4316.12,1876.86 4495.11,2035.82 4514.86,2050.33 4541.35,2072.38 4568.78,2092.65 4630.54,2135.71 4650.64,2151.96 4692.58,2191.48 4748.81,2269.63 4814.45,2361.55 4864.38,2446.86 5128.05,2856.65 5219.11,2979.47 5431.22,3220.55 5550.21,3338.75 5722.44,3474.01 5866.68,3563.27 6011.76,3610.56 6082.97,3619.52 6272.24,3622.40 6352.50,3629.96 6658.99,3710.15 6708.25,3727.34 6763.95,3752.20 6807.56,3777.94 6917.75,3858.12 6951.50,3882.03 6980.33,3905.92 7008.04,3930.18 7055.88,3976.75 7093.63,4023.28 7124.42,4076.97 7179.77,4220.35 7205.43,4261.71 7245.78,4319.65 7291.67,4378.46 7344.12,4423.76 7389.07,4448.62 7431.16,4466.50 7537.51,4498.49 7690.84,4543.84 7803.93,4576.81 7862.75,4589.86 7899.11,4592.85 7926.82,4592.11 7956.20,4589.21 8004.22,4578.24 8035.19,4568.65 8066.75,4554.37 8097.84,4537.30 8126.06,4517.28 8158.85,4489.38 8192.55,4448.68 8297.16,4319.91 8346.55,4274.33 8380.74,4246.88 8422.98,4222.81 8505.51,4176.93 8686.95,4078.80 8781.11,4042.77 8845.22,4028.85 8899.60,4024.17 9027.35,4037.12 9097.31,4057.23 9157.63,4085.26 9218.09,4120.65 9268.68,4165.01 9286.38,4179.87 9408.41,4349.98 9458.90,4418.34 9469.10,4431.94 9610.90,4626.06 9619.30,4637.93 9633.88,4656.16 9868.74,4978.59 9881.14,4995.57 9904.15,5026.09 9915.66,5041.41"/>
        <param key="railway:track_ref" value="2"/>
    </edge>
    <edge id="W1_in" from="148820" to="134872" priority="9" type="highway.primary" shape="9975.22,5073.36,5.60 9966.49,5070.51,5.80 9955.07,5066.76,5.40 9944.97,5060.30,5.30 9933.51,5049.24,5.20 9916.41,5036.48,5.00 9909.90,5035.17,4.90 9907.65,5034.92,4.90 9904.19,5035.21,5.50 9897.29,5036.82,6.50 9886.68,5041.03,6.90 9880.04,5046.04,7.40 9865.81,5062.15,8.40 9854.29,5080.86,8.80 9846.16,5094.00,9.10 9832.86,5109.03,9.70">
        <lane id="W1_in_0" index="0" allow="pedestrian" speed="13.89" length="177.66" width="2.00" shape="9972.92,5080.39,5.60 9964.19,5077.54,5.80 9951.87,5073.50,5.40 9940.36,5066.14,5.30 9928.71,5054.89,5.20 9913.32,5043.41,5.00 9908.76,5042.49,4.90 9907.55,5042.35,4.90 9905.35,5042.54,5.50 9899.51,5043.90,6.50 9890.34,5047.54,6.90 9885.09,5051.50,7.40 9871.78,5066.57,8.40 9860.59,5084.75,8.80 9852.12,5098.43,9.10 9842.25,5109.58,9.53"/>
        <lane id="W1_in_1" index="1" disallow="pedestrian bicycle tram rail_urban rail rail_electric ship cable_car subway" speed="13.89" length="177.66" shape="9973.73,5077.92,5.60 9965.00,5075.07,5.80 9953.00,5071.13,5.40 9941.98,5064.09,5.30 9930.40,5052.91,5.20 9914.40,5040.97,5.00 9909.16,5039.92,4.90 9907.58,5039.74,4.90 9904.94,5039.96,5.50 9898.73,5041.41,6.50 9889.05,5045.25,6.90 9883.32,5049.58,7.40 9869.68,5065.02,8.40 9858.38,5083.38,8.80 9850.03,5096.87,9.10 9840.31,5107.86,9.53"/>
        <lane id="W1_in_2" index="2" disallow="pedestrian bicycle tram rail_urban rail rail_electric ship cable_car subway" speed="13.89" length="177.66" shape="9974.72,5074.88,5.60 9965.99,5072.03,5.80 9954.38,5068.22,5.40 9943.97,5061.56,5.30 9932.47,5050.46,5.20 9915.74,5037.98,5.00 9909.65,5036.75,4.90 9907.63,5036.53,4.90 9904.44,5036.79,5.50 9897.77,5038.35,6.50 9887.47,5042.44,6.90 9881.13,5047.22,7.40 9867.10,5063.11,8.40 9855.65,5081.70,8.80 9847.45,5094.96,9.10 9837.91,5105.74,9.53"/>
    </edge>
    <edge id="N1_out" from="134872" to="135678" priority="9" type="highway.primary" shape="9832.86,5109.03,9.70 9807.99,5089.05,9.20 9800.08,5085.23,9.20 9767.60,5074.45,10.30 9764.00,5073.31,10.40 9751.44,5068.94,10.50 9737.87,5061.75,11.05 9725.03,5054.90,11.00 9720.45,5051.33,11.40 9717.51,5046.93,11.30 9709.83,5035.39,11.30 9708.02,5032.62,11.30 9677.77,4984.97,12.90 9671.62,4971.30,13.10 9670.36,4967.14,13.10 9669.10,4962.97,13.54 9665.70,4953.80,13.80">